(PID.TID 0000.0001) 
(PID.TID 0000.0001) // ======================================================
(PID.TID 0000.0001) //                      MITgcm UV
(PID.TID 0000.0001) //                      =========
(PID.TID 0000.0001) // ======================================================
(PID.TID 0000.0001) // execution environment starting up...
(PID.TID 0000.0001) 
(PID.TID 0000.0001) // MITgcmUV version:  checkpoint66l
(PID.TID 0000.0001) // Build user:        dmenemen
(PID.TID 0000.0001) // Build host:        LMC-051773
(PID.TID 0000.0001) // Build date:        Fri Jan 17 11:29:18 PST 2020
(PID.TID 0000.0001) 
(PID.TID 0000.0001) // =======================================================
(PID.TID 0000.0001) // Execution Environment parameter file "eedata"
(PID.TID 0000.0001) // =======================================================
(PID.TID 0000.0001) ># Example "eedata" file
(PID.TID 0000.0001) ># Lines beginning "#" are comments
(PID.TID 0000.0001) ># nTx - No. threads per process in X
(PID.TID 0000.0001) ># nTy - No. threads per process in Y
(PID.TID 0000.0001) > &EEPARMS
(PID.TID 0000.0001) > nTx=1,
(PID.TID 0000.0001) > nTy=1,
(PID.TID 0000.0001) > /
(PID.TID 0000.0001) ># Note: Some systems use & as the namelist terminator (as shown here).
(PID.TID 0000.0001) >#       Other systems use a / character.
(PID.TID 0000.0001) 
(PID.TID 0000.0001) // =======================================================
(PID.TID 0000.0001) // Computational Grid Specification ( see files "SIZE.h" )
(PID.TID 0000.0001) //                                  ( and "eedata"       )
(PID.TID 0000.0001) // =======================================================
(PID.TID 0000.0001)      nPx =    1 ; /* No. processes in X */
(PID.TID 0000.0001)      nPy =    1 ; /* No. processes in Y */
(PID.TID 0000.0001)      nSx =    2 ; /* No. tiles in X per process */
(PID.TID 0000.0001)      nSy =    2 ; /* No. tiles in Y per process */
(PID.TID 0000.0001)      sNx =   64 ; /* Tile size in X */
(PID.TID 0000.0001)      sNy =   32 ; /* Tile size in Y */
(PID.TID 0000.0001)      OLx =    4 ; /* Tile overlap distance in X */
(PID.TID 0000.0001)      OLy =    4 ; /* Tile overlap distance in Y */
(PID.TID 0000.0001)      nTx =    1 ; /* No. threads in X per process */
(PID.TID 0000.0001)      nTy =    1 ; /* No. threads in Y per process */
(PID.TID 0000.0001)       Nr =   15 ; /* No. levels in the vertical   */
(PID.TID 0000.0001)       Nx =  128 ; /* Total domain size in X ( = nPx*nSx*sNx ) */
(PID.TID 0000.0001)       Ny =   64 ; /* Total domain size in Y ( = nPy*nSy*sNy ) */
(PID.TID 0000.0001)   nTiles =    4 ; /* Total no. tiles per process ( = nSx*nSy ) */
(PID.TID 0000.0001)   nProcs =    1 ; /* Total no. processes ( = nPx*nPy ) */
(PID.TID 0000.0001) nThreads =    1 ; /* Total no. threads per process ( = nTx*nTy ) */
(PID.TID 0000.0001) usingMPI =    F ; /* Flag used to control whether MPI is in use */
(PID.TID 0000.0001)                   /*  note: To execute a program with MPI calls */
(PID.TID 0000.0001)                   /*  it must be launched appropriately e.g     */
(PID.TID 0000.0001)                   /*  "mpirun -np 64 ......"                    */
(PID.TID 0000.0001) useCoupler=    F ;/* Flag used to control communications with   */
(PID.TID 0000.0001)                   /*  other model components, through a coupler */
(PID.TID 0000.0001) debugMode =    F ; /* print debug msg. (sequence of S/R calls)  */
(PID.TID 0000.0001) printMapIncludesZeros=    F ; /* print zeros in Std.Output maps */
(PID.TID 0000.0001) maxLengthPrt1D=   65 /* maxLength of 1D array printed to StdOut */
(PID.TID 0000.0001) 
(PID.TID 0000.0001) // ======================================================
(PID.TID 0000.0001) // Mapping of tiles to threads
(PID.TID 0000.0001) // ======================================================
(PID.TID 0000.0001) // -o- Thread   1, tiles (   1:   2,   1:   2)
(PID.TID 0000.0001) 
(PID.TID 0000.0001) // ======================================================
(PID.TID 0000.0001) // Tile <-> Tile connectvity table
(PID.TID 0000.0001) // ======================================================
(PID.TID 0000.0001) // Tile number: 000001 (process no. = 000000)
(PID.TID 0000.0001) //        WEST: Tile = 000002, Process = 000000, Comm = put
(PID.TID 0000.0001) //                bi = 000002, bj = 000001
(PID.TID 0000.0001) //        EAST: Tile = 000002, Process = 000000, Comm = put
(PID.TID 0000.0001) //                bi = 000002, bj = 000001
(PID.TID 0000.0001) //       SOUTH: Tile = 000003, Process = 000000, Comm = put
(PID.TID 0000.0001) //                bi = 000001, bj = 000002
(PID.TID 0000.0001) //       NORTH: Tile = 000003, Process = 000000, Comm = put
(PID.TID 0000.0001) //                bi = 000001, bj = 000002
(PID.TID 0000.0001) // Tile number: 000002 (process no. = 000000)
(PID.TID 0000.0001) //        WEST: Tile = 000001, Process = 000000, Comm = put
(PID.TID 0000.0001) //                bi = 000001, bj = 000001
(PID.TID 0000.0001) //        EAST: Tile = 000001, Process = 000000, Comm = put
(PID.TID 0000.0001) //                bi = 000001, bj = 000001
(PID.TID 0000.0001) //       SOUTH: Tile = 000004, Process = 000000, Comm = put
(PID.TID 0000.0001) //                bi = 000002, bj = 000002
(PID.TID 0000.0001) //       NORTH: Tile = 000004, Process = 000000, Comm = put
(PID.TID 0000.0001) //                bi = 000002, bj = 000002
(PID.TID 0000.0001) // Tile number: 000003 (process no. = 000000)
(PID.TID 0000.0001) //        WEST: Tile = 000004, Process = 000000, Comm = put
(PID.TID 0000.0001) //                bi = 000002, bj = 000002
(PID.TID 0000.0001) //        EAST: Tile = 000004, Process = 000000, Comm = put
(PID.TID 0000.0001) //                bi = 000002, bj = 000002
(PID.TID 0000.0001) //       SOUTH: Tile = 000001, Process = 000000, Comm = put
(PID.TID 0000.0001) //                bi = 000001, bj = 000001
(PID.TID 0000.0001) //       NORTH: Tile = 000001, Process = 000000, Comm = put
(PID.TID 0000.0001) //                bi = 000001, bj = 000001
(PID.TID 0000.0001) // Tile number: 000004 (process no. = 000000)
(PID.TID 0000.0001) //        WEST: Tile = 000003, Process = 000000, Comm = put
(PID.TID 0000.0001) //                bi = 000001, bj = 000002
(PID.TID 0000.0001) //        EAST: Tile = 000003, Process = 000000, Comm = put
(PID.TID 0000.0001) //                bi = 000001, bj = 000002
(PID.TID 0000.0001) //       SOUTH: Tile = 000002, Process = 000000, Comm = put
(PID.TID 0000.0001) //                bi = 000002, bj = 000001
(PID.TID 0000.0001) //       NORTH: Tile = 000002, Process = 000000, Comm = put
(PID.TID 0000.0001) //                bi = 000002, bj = 000001
(PID.TID 0000.0001) 
(PID.TID 0000.0001)  INI_PARMS: opening model parameter file "data"
(PID.TID 0000.0001)  OPEN_COPY_DATA_FILE: opening file data
(PID.TID 0000.0001) // =======================================================
(PID.TID 0000.0001) // Parameter file "data"
(PID.TID 0000.0001) // =======================================================
(PID.TID 0000.0001) ># ====================
(PID.TID 0000.0001) ># | Model parameters |
(PID.TID 0000.0001) ># ====================
(PID.TID 0000.0001) >#
(PID.TID 0000.0001) ># Continuous equation parameters
(PID.TID 0000.0001) > &PARM01
(PID.TID 0000.0001) > tRef=15*20.,
(PID.TID 0000.0001) > sRef=15*35.,
(PID.TID 0000.0001) > viscA4=0.,
(PID.TID 0000.0001) > viscAh=2.E5,
(PID.TID 0000.0001) > diffKhT=0.E3,
(PID.TID 0000.0001) > diffKhS=0.E3,
(PID.TID 0000.0001) > viscAz=1.E-3,
(PID.TID 0000.0001) > diffKrBL79surf= 3.E-5,
(PID.TID 0000.0001) > diffKrBL79deep= 13.E-5,
(PID.TID 0000.0001) > diffKrBL79Ho  = -2000.,
(PID.TID 0000.0001) > diffKrBL79scl = 150.,
(PID.TID 0000.0001) > gravity=9.81,
(PID.TID 0000.0001) > rhoConst=1035.,
(PID.TID 0000.0001) > rhoConstFresh=1000.,
(PID.TID 0000.0001) > implicitFreeSurface=.TRUE.,
(PID.TID 0000.0001) > eosType='JMD95Z',
(PID.TID 0000.0001) > implicitDiffusion=.TRUE.,
(PID.TID 0000.0001) > implicitViscosity=.TRUE.,
(PID.TID 0000.0001) > ivdc_kappa=100.,
(PID.TID 0000.0001) > useSingleCpuIO=.TRUE.,
(PID.TID 0000.0001) > tempAdvScheme=2,
(PID.TID 0000.0001) > saltAdvScheme=2,
(PID.TID 0000.0001) > allowFreezing=.TRUE.,
(PID.TID 0000.0001) ># turn on looped cells
(PID.TID 0000.0001) > hFacMin=.1,
(PID.TID 0000.0001) > hFacMindz=50.,
(PID.TID 0000.0001) > useCDscheme=.TRUE.,
(PID.TID 0000.0001) > /
(PID.TID 0000.0001) >
(PID.TID 0000.0001) ># Elliptic solver parameters
(PID.TID 0000.0001) > &PARM02
(PID.TID 0000.0001) > cg2dMaxIters=1000,
(PID.TID 0000.0001) > cg2dTargetResidual=1.E-13,
(PID.TID 0000.0001) > /
(PID.TID 0000.0001) >
(PID.TID 0000.0001) ># Time stepping parameters
(PID.TID 0000.0001) > &PARM03
(PID.TID 0000.0001) > nIter0=0,
(PID.TID 0000.0001) > nTimeSteps = 4,
(PID.TID 0000.0001) > deltaTmom  = 900.,
(PID.TID 0000.0001) > tauCD =     321428.,
(PID.TID 0000.0001) > deltaTtracer= 43200.,
(PID.TID 0000.0001) > deltaTClock = 43200.,
(PID.TID 0000.0001) > abEps = 0.1,
(PID.TID 0000.0001) > pChkptFreq = 216000.,
(PID.TID 0000.0001) > chkptFreq  = 216000.,
(PID.TID 0000.0001) > dumpFreq   = 216000.,
(PID.TID 0000.0001) > taveFreq   = 216000.,
(PID.TID 0000.0001) > monitorFreq= 86400.,
(PID.TID 0000.0001) > periodicExternalForcing=.TRUE.,
(PID.TID 0000.0001) > externForcingPeriod=2592000.,
(PID.TID 0000.0001) > externForcingCycle=31104000.,
(PID.TID 0000.0001) > monitorFreq= 1.,
(PID.TID 0000.0001) > /
(PID.TID 0000.0001) >
(PID.TID 0000.0001) ># Gridding parameters
(PID.TID 0000.0001) > &PARM04
(PID.TID 0000.0001) > usingSphericalPolarGrid=.TRUE.,
(PID.TID 0000.0001) > delZ=  50., 70.,  100., 140., 190.,
(PID.TID 0000.0001) >       240., 290., 340., 390., 440.,
(PID.TID 0000.0001) >       490., 540., 590., 640., 690.,
(PID.TID 0000.0001) > ygOrigin=-90.,
(PID.TID 0000.0001) > delX=128*2.8125,
(PID.TID 0000.0001) > delY=64*2.8125,
(PID.TID 0000.0001) > /
(PID.TID 0000.0001) >
(PID.TID 0000.0001) ># Input datasets
(PID.TID 0000.0001) > &PARM05
(PID.TID 0000.0001) > bathyFile=      'bathy.bin',
(PID.TID 0000.0001) > hydrogThetaFile='Theta.0005184000',
(PID.TID 0000.0001) > hydrogSaltFile= 'Salt.0005184000',
(PID.TID 0000.0001) > uVelInitFile=   'Uvel.0005184000',
(PID.TID 0000.0001) > vVelInitFile=   'Vvel.0005184000',
(PID.TID 0000.0001) > pSurfInitFile=  'Eta.0005184000',
(PID.TID 0000.0001) > /
(PID.TID 0000.0001) 
(PID.TID 0000.0001)  INI_PARMS ; starts to read PARM01
(PID.TID 0000.0001)  INI_PARMS ; read PARM01 : OK
(PID.TID 0000.0001)  INI_PARMS ; starts to read PARM02
(PID.TID 0000.0001)  INI_PARMS ; read PARM02 : OK
(PID.TID 0000.0001)  INI_PARMS ; starts to read PARM03
(PID.TID 0000.0001)  INI_PARMS ; read PARM03 : OK
(PID.TID 0000.0001)  INI_PARMS ; starts to read PARM04
(PID.TID 0000.0001)  INI_PARMS ; read PARM04 : OK
(PID.TID 0000.0001)  INI_PARMS ; starts to read PARM05
(PID.TID 0000.0001)  INI_PARMS ; read PARM05 : OK
(PID.TID 0000.0001)  INI_PARMS: finished reading file "data"
(PID.TID 0000.0001)  PACKAGES_BOOT: opening data.pkg
(PID.TID 0000.0001)  OPEN_COPY_DATA_FILE: opening file data.pkg
(PID.TID 0000.0001) // =======================================================
(PID.TID 0000.0001) // Parameter file "data.pkg"
(PID.TID 0000.0001) // =======================================================
(PID.TID 0000.0001) ># Packages
(PID.TID 0000.0001) > &PACKAGES
(PID.TID 0000.0001) > useEXF   = .TRUE.,
(PID.TID 0000.0001) > useCAL   = .TRUE.,
(PID.TID 0000.0001) > useGMRedi= .TRUE.,
(PID.TID 0000.0001) ># useSeaice= .TRUE.,
(PID.TID 0000.0001) > useGGL90 = .TRUE.,
(PID.TID 0000.0001) ># useSALT_PlUME=.TRUE.,
(PID.TID 0000.0001) > useDiagnostics=.TRUE.,
(PID.TID 0000.0001) > usePTRACERS   = .TRUE.,
(PID.TID 0000.0001) > useGCHEM      = .TRUE.,
(PID.TID 0000.0001) > /
(PID.TID 0000.0001) 
(PID.TID 0000.0001)  PACKAGES_BOOT: finished reading data.pkg
(PID.TID 0000.0001)  PACKAGES_BOOT: On/Off package Summary
 --------  pkgs with a standard "usePKG" On/Off switch in "data.pkg":  --------
 pkg/ggl90                compiled   and   used ( useGGL90                 = T )
 pkg/gmredi               compiled   and   used ( useGMRedi                = T )
 pkg/cal                  compiled   and   used ( useCAL                   = T )
 pkg/exf                  compiled   and   used ( useEXF                   = T )
 pkg/ptracers             compiled   and   used ( usePTRACERS              = T )
 pkg/gchem                compiled   and   used ( useGCHEM                 = T )
 pkg/seaice               compiled but not used ( useSEAICE                = F )
 pkg/salt_plume           compiled but not used ( useSALT_PLUME            = F )
 pkg/diagnostics          compiled   and   used ( useDiagnostics           = T )
 -------- pkgs without standard "usePKG" On/Off switch in "data.pkg":  --------
 pkg/generic_advdiff      compiled   and   used ( useGAD                   = T )
 pkg/mom_common           compiled   and   used ( momStepping              = T )
 pkg/mom_vecinv           compiled but not used ( +vectorInvariantMomentum = F )
 pkg/mom_fluxform         compiled   and   used ( & not vectorInvariantMom = T )
 pkg/cd_code              compiled   and   used ( useCDscheme              = T )
 pkg/monitor              compiled   and   used ( monitorFreq > 0.         = T )
 pkg/timeave              compiled   and   used ( taveFreq > 0.            = T )
 pkg/debug                compiled but not used ( debugMode                = F )
 pkg/rw                   compiled   and   used
 pkg/mdsio                compiled   and   used
(PID.TID 0000.0001)  PACKAGES_BOOT: End of package Summary
(PID.TID 0000.0001) 
(PID.TID 0000.0001) CAL_READPARMS: opening data.cal
(PID.TID 0000.0001)  OPEN_COPY_DATA_FILE: opening file data.cal
(PID.TID 0000.0001) // =======================================================
(PID.TID 0000.0001) // Parameter file "data.cal"
(PID.TID 0000.0001) // =======================================================
(PID.TID 0000.0001) >#
(PID.TID 0000.0001) ># *******************
(PID.TID 0000.0001) ># Calendar Parameters
(PID.TID 0000.0001) ># *******************
(PID.TID 0000.0001) > &CAL_NML
(PID.TID 0000.0001) > TheCalendar='gregorian',
(PID.TID 0000.0001) > startDate_1=19920101,
(PID.TID 0000.0001) ># startDate_2=120000,
(PID.TID 0000.0001) > startDate_2=000000,
(PID.TID 0000.0001) > calendarDumps = .TRUE.,
(PID.TID 0000.0001) > /
(PID.TID 0000.0001) 
(PID.TID 0000.0001) CAL_READPARMS: finished reading data.cal
(PID.TID 0000.0001) EXF_READPARMS: opening data.exf
(PID.TID 0000.0001)  OPEN_COPY_DATA_FILE: opening file data.exf
(PID.TID 0000.0001) // =======================================================
(PID.TID 0000.0001) // Parameter file "data.exf"
(PID.TID 0000.0001) // =======================================================
(PID.TID 0000.0001) ># *********************
(PID.TID 0000.0001) ># External Forcing Data
(PID.TID 0000.0001) ># *********************
(PID.TID 0000.0001) >
(PID.TID 0000.0001) > &EXF_NML_01
(PID.TID 0000.0001) > exf_iprec         = 32,
(PID.TID 0000.0001) > /
(PID.TID 0000.0001) >
(PID.TID 0000.0001) > &EXF_NML_02
(PID.TID 0000.0001) > hfluxfile         = 'shi_qnet.bin',
(PID.TID 0000.0001) > sfluxfile         = 'shi_empmr_year.bin',
(PID.TID 0000.0001) > ustressfile       = 'tren_taux.bin',
(PID.TID 0000.0001) > vstressfile       = 'tren_tauy.bin',
(PID.TID 0000.0001) > climsstfile       = 'lev_monthly_temp.bin',
(PID.TID 0000.0001) > climsssfile       = 'lev_monthly_salt.bin',
(PID.TID 0000.0001) >#
(PID.TID 0000.0001) > hfluxperiod       = -12.,
(PID.TID 0000.0001) > sfluxperiod       = -12.,
(PID.TID 0000.0001) > ustressperiod     = -12.,
(PID.TID 0000.0001) > vstressperiod     = -12.,
(PID.TID 0000.0001) > climsstperiod     = -12.,
(PID.TID 0000.0001) > climsssperiod     = -12.,
(PID.TID 0000.0001) >#
(PID.TID 0000.0001) > climsstTauRelax   = 5184000.,
(PID.TID 0000.0001) > climsssTauRelax   = 7776000.,
(PID.TID 0000.0001) > /
(PID.TID 0000.0001) >
(PID.TID 0000.0001) > &EXF_NML_03
(PID.TID 0000.0001) > /
(PID.TID 0000.0001) >
(PID.TID 0000.0001) > &EXF_NML_04
(PID.TID 0000.0001) > hflux_lon0    = 1.40625,
(PID.TID 0000.0001) > hflux_lon_inc = 2.8125,
(PID.TID 0000.0001) > hflux_lat0    = -88.59375,
(PID.TID 0000.0001) > hflux_lat_inc = 39*2.8125,
(PID.TID 0000.0001) > hflux_nlon    = 128,
(PID.TID 0000.0001) > hflux_nlat    = 64,
(PID.TID 0000.0001) >#
(PID.TID 0000.0001) > sflux_lon0    = 1.40625,
(PID.TID 0000.0001) > sflux_lon_inc = 2.8125,
(PID.TID 0000.0001) > sflux_lat0    = -88.59375,
(PID.TID 0000.0001) > sflux_lat_inc = 39*2.8125,
(PID.TID 0000.0001) > sflux_nlon    = 128,
(PID.TID 0000.0001) > sflux_nlat    = 64,
(PID.TID 0000.0001) >#
(PID.TID 0000.0001) > ustress_lon0    = 0.,
(PID.TID 0000.0001) > ustress_lon_inc = 2.8125,
(PID.TID 0000.0001) > ustress_lat0    = -88.59375,
(PID.TID 0000.0001) > ustress_lat_inc = 39*2.8125,
(PID.TID 0000.0001) > ustress_nlon    = 128,
(PID.TID 0000.0001) > ustress_nlat    = 64,
(PID.TID 0000.0001) >#
(PID.TID 0000.0001) > vstress_lon0    = 1.40625,
(PID.TID 0000.0001) > vstress_lon_inc = 2.8125,
(PID.TID 0000.0001) > vstress_lat0    = -90.,
(PID.TID 0000.0001) > vstress_lat_inc = 39*2.8125,
(PID.TID 0000.0001) > vstress_nlon    = 128,
(PID.TID 0000.0001) > vstress_nlat    = 64,
(PID.TID 0000.0001) >#
(PID.TID 0000.0001) > climsst_lon0    = 1.40625,
(PID.TID 0000.0001) > climsst_lon_inc = 2.8125,
(PID.TID 0000.0001) > climsst_lat0    = -88.59375,
(PID.TID 0000.0001) > climsst_lat_inc = 39*2.8125,
(PID.TID 0000.0001) > climsst_nlon    = 128,
(PID.TID 0000.0001) > climsst_nlat    = 64,
(PID.TID 0000.0001) >#
(PID.TID 0000.0001) > climsss_lon0    = 1.40625,
(PID.TID 0000.0001) > climsss_lon_inc = 2.8125,
(PID.TID 0000.0001) > climsss_lat0    = -88.59375,
(PID.TID 0000.0001) > climsss_lat_inc = 39*2.8125,
(PID.TID 0000.0001) > climsss_nlon    = 128,
(PID.TID 0000.0001) > climsss_nlat    = 64,
(PID.TID 0000.0001) > /
(PID.TID 0000.0001) 
(PID.TID 0000.0001) EXF_READPARMS: reading EXF_NML_01
(PID.TID 0000.0001) EXF_READPARMS: reading EXF_NML_02
(PID.TID 0000.0001) EXF_READPARMS: reading EXF_NML_03
(PID.TID 0000.0001) EXF_READPARMS: reading EXF_NML_04
(PID.TID 0000.0001) EXF_READPARMS: finished reading data.exf
(PID.TID 0000.0001)  GGL90_READPARMS: opening data.ggl90
(PID.TID 0000.0001)  OPEN_COPY_DATA_FILE: opening file data.ggl90
(PID.TID 0000.0001) // =======================================================
(PID.TID 0000.0001) // Parameter file "data.ggl90"
(PID.TID 0000.0001) // =======================================================
(PID.TID 0000.0001) ># =====================================================================
(PID.TID 0000.0001) ># | Parameters for Gaspar et al. (1990)'s TKE vertical mixing scheme  |
(PID.TID 0000.0001) ># =====================================================================
(PID.TID 0000.0001) > &GGL90_PARM01
(PID.TID 0000.0001) > GGL90alpha=30.,
(PID.TID 0000.0001) > GGL90TKEmin  = 1.e-7,
(PID.TID 0000.0001) > GGL90TKEbottom = 1.e-6,
(PID.TID 0000.0001) > mxlMaxFlag =2,
(PID.TID 0000.0001) > mxlSurfFlag=.TRUE.,
(PID.TID 0000.0001) > /
(PID.TID 0000.0001) 
(PID.TID 0000.0001)  GGL90_READPARMS ; starts to read GGL90_PARM01
(PID.TID 0000.0001)  GGL90_READPARMS: read GGL90_PARM01 : OK
(PID.TID 0000.0001)  GGL90_READPARMS: finished reading data.ggl90
(PID.TID 0000.0001) // =======================================================
(PID.TID 0000.0001) // GGL90 configuration
(PID.TID 0000.0001) // =======================================================
(PID.TID 0000.0001) GGL90dumpFreq =   /* GGL90 state write out interval ( s ). */
(PID.TID 0000.0001)                 2.160000000000000E+05
(PID.TID 0000.0001)     ;
(PID.TID 0000.0001) GGL90taveFreq =   /* GGL90 averaging interval ( s ). */
(PID.TID 0000.0001)                 2.160000000000000E+05
(PID.TID 0000.0001)     ;
(PID.TID 0000.0001) GGL90mixingMAPS =   /* GGL90 IO flag. */
(PID.TID 0000.0001)                   F
(PID.TID 0000.0001)     ;
(PID.TID 0000.0001) GGL90writeState =   /* GGL90 IO flag. */
(PID.TID 0000.0001)                   F
(PID.TID 0000.0001)     ;
(PID.TID 0000.0001) GGL90ck =   /* GGL90 viscosity parameter. */
(PID.TID 0000.0001)                 1.000000000000000E-01
(PID.TID 0000.0001)     ;
(PID.TID 0000.0001) GGL90ceps =   /* GGL90 dissipation parameter. */
(PID.TID 0000.0001)                 7.000000000000000E-01
(PID.TID 0000.0001)     ;
(PID.TID 0000.0001) GGL90alpha =   /* GGL90 TKE diffusivity parameter. */
(PID.TID 0000.0001)                 3.000000000000000E+01
(PID.TID 0000.0001)     ;
(PID.TID 0000.0001) GGL90m2 =   /* GGL90 wind stress to vertical stress ratio. */
(PID.TID 0000.0001)                 3.750000000000000E+00
(PID.TID 0000.0001)     ;
(PID.TID 0000.0001) GGL90TKEmin =   /* GGL90 minimum kinetic energy ( m^2/s^2 ). */
(PID.TID 0000.0001)                 1.000000000000000E-07
(PID.TID 0000.0001)     ;
(PID.TID 0000.0001) GGL90TKEsurfMin =   /* GGL90 minimum surface kinetic energy ( m^2/s^2 ). */
(PID.TID 0000.0001)                 1.000000000000000E-04
(PID.TID 0000.0001)     ;
(PID.TID 0000.0001) GGL90TKEbottom =   /* GGL90 bottom kinetic energy ( m^2/s^2 ). */
(PID.TID 0000.0001)                 1.000000000000000E-06
(PID.TID 0000.0001)     ;
(PID.TID 0000.0001) GGL90viscMax =   /* GGL90 upper limit for viscosity ( m^2/s ). */
(PID.TID 0000.0001)                 1.000000000000000E+02
(PID.TID 0000.0001)     ;
(PID.TID 0000.0001) GGL90diffMax =   /* GGL90 upper limit for diffusivity ( m^2/s ). */
(PID.TID 0000.0001)                 1.000000000000000E+02
(PID.TID 0000.0001)     ;
(PID.TID 0000.0001) GGL90diffTKEh =   /* GGL90 horizontal diffusivity for TKE ( m^2/s ). */
(PID.TID 0000.0001)                 0.000000000000000E+00
(PID.TID 0000.0001)     ;
(PID.TID 0000.0001) GGL90mixingLengthMin =   /* GGL90 minimum mixing length ( m ). */
(PID.TID 0000.0001)                 1.000000000000000E-08
(PID.TID 0000.0001)     ;
(PID.TID 0000.0001) mxlMaxFlag =   /* Flag for limiting mixing-length method */
(PID.TID 0000.0001)                       2
(PID.TID 0000.0001)     ;
(PID.TID 0000.0001) mxlSurfFlag =   /* GGL90 flag for near surface mixing. */
(PID.TID 0000.0001)                   T
(PID.TID 0000.0001)     ;
(PID.TID 0000.0001) calcMeanVertShear = /* calc Mean of Vert.Shear (vs shear of Mean flow) */
(PID.TID 0000.0001)                   F
(PID.TID 0000.0001)     ;
(PID.TID 0000.0001) GGL90: GGL90TKEFile =
(PID.TID 0000.0001) GGL90writeState =   /* GGL90 Boundary condition flag. */
(PID.TID 0000.0001)                   T
(PID.TID 0000.0001)     ;
(PID.TID 0000.0001) // =======================================================
(PID.TID 0000.0001) // End of GGL90 config. summary
(PID.TID 0000.0001) // =======================================================
(PID.TID 0000.0001) 
(PID.TID 0000.0001)  GM_READPARMS: opening data.gmredi
(PID.TID 0000.0001)  OPEN_COPY_DATA_FILE: opening file data.gmredi
(PID.TID 0000.0001) // =======================================================
(PID.TID 0000.0001) // Parameter file "data.gmredi"
(PID.TID 0000.0001) // =======================================================
(PID.TID 0000.0001) ># from MOM
(PID.TID 0000.0001) ># GM_background_K: 	isopycnal diffusion coefficien
(PID.TID 0000.0001) ># GM_maxSlope:		max slope of isopycnals
(PID.TID 0000.0001) ># GM_Scrit:		transition for scaling diffusion coefficient
(PID.TID 0000.0001) ># GM_Sd:		half width scaling for diffusion coefficient
(PID.TID 0000.0001) ># real background diff:	horizontal diffusion
(PID.TID 0000.0001) >
(PID.TID 0000.0001) ># ifdef GM_VISBECK_VARIABLE_K, include following in GM_PARM01
(PID.TID 0000.0001) ># GM_Visbeck_alpha   = 0.,
(PID.TID 0000.0001) ># GM_Visbeck_length  = 2.e+5,
(PID.TID 0000.0001) ># GM_Visbeck_depth   = 1.e+3,
(PID.TID 0000.0001) ># GM_Visbeck_maxval_K= 2.5e+3,
(PID.TID 0000.0001) >
(PID.TID 0000.0001) > &GM_PARM01
(PID.TID 0000.0001) >  GM_background_K    = 1.e+3,
(PID.TID 0000.0001) >  GM_taper_scheme    = 'gkw91',
(PID.TID 0000.0001) >  GM_maxSlope        = 1.e-2,
(PID.TID 0000.0001) >  GM_Kmin_horiz      = 100.,
(PID.TID 0000.0001) >  GM_Scrit           = 4.e-3,
(PID.TID 0000.0001) >  GM_Sd              = 1.e-3,
(PID.TID 0000.0001) > /
(PID.TID 0000.0001) >
(PID.TID 0000.0001) >
(PID.TID 0000.0001) 
(PID.TID 0000.0001)  GM_READPARMS: finished reading data.gmredi
(PID.TID 0000.0001)  PTRACERS_READPARMS: opening data.ptracers
(PID.TID 0000.0001)  OPEN_COPY_DATA_FILE: opening file data.ptracers
(PID.TID 0000.0001) // =======================================================
(PID.TID 0000.0001) // Parameter file "data.ptracers"
(PID.TID 0000.0001) // =======================================================
(PID.TID 0000.0001) > &PTRACERS_PARM01
(PID.TID 0000.0001) > PTRACERS_numInUse=5,
(PID.TID 0000.0001) > PTRACERS_Iter0= 0,
(PID.TID 0000.0001) ># tracer 1 - dic
(PID.TID 0000.0001) > PTRACERS_names(1)='DIC',
(PID.TID 0000.0001) > PTRACERS_long_names(1)='Dissolved Inorganic Carbon (DIC) [mol C/m^3]',
(PID.TID 0000.0001) > PTRACERS_units(1)='mol/m^3',
(PID.TID 0000.0001) > PTRACERS_advScheme(1)=77,
(PID.TID 0000.0001) > PTRACERS_diffKh(1)=0.E3,
(PID.TID 0000.0001) > PTRACERS_diffKr(1)=3.E-5,
(PID.TID 0000.0001) > PTRACERS_useGMRedi(1)=.TRUE.,
(PID.TID 0000.0001) > PTRACERS_initialFile(1)='DIC.0005184000',
(PID.TID 0000.0001) >#- use F95 syntax (to be converted with -DNML_EXTENDED_F77 if needed)
(PID.TID 0000.0001) > PTRACERS_ref(1:15,1) = 2.0282, 2.0609, 2.1206, 2.1581,
(PID.TID 0000.0001) >                     2.1904, 2.2188, 2.2474, 2.2699,
(PID.TID 0000.0001) >                     2.2792, 2.2814, 2.2815, 2.2806,
(PID.TID 0000.0001) >                     2.2800, 2.2760, 2.2758,
(PID.TID 0000.0001) > PTRACERS_EvPrRn(1)= 0.,
(PID.TID 0000.0001) ># tracer 2 - alk
(PID.TID 0000.0001) > PTRACERS_names(2)='Alk',
(PID.TID 0000.0001) > PTRACERS_long_names(2)='Alkalinity (Alk) [mol eq/m^3]',
(PID.TID 0000.0001) > PTRACERS_units(2)='mol/m^3',
(PID.TID 0000.0001) > PTRACERS_advScheme(2)=77,
(PID.TID 0000.0001) > PTRACERS_diffKh(2)=0.E3,
(PID.TID 0000.0001) > PTRACERS_diffKr(2)=3.E-5,
(PID.TID 0000.0001) > PTRACERS_useGMRedi(2)=.TRUE.,
(PID.TID 0000.0001) > PTRACERS_initialFile(2)='Alk.0005184000',
(PID.TID 0000.0001) >#- use F95 syntax (to be converted with -DNML_EXTENDED_F77 if needed)
(PID.TID 0000.0001) > PTRACERS_ref(1:15,2) = 2.3086, 2.3149, 2.3164, 2.3112,
(PID.TID 0000.0001) >                     2.3098, 2.3160, 2.3313, 2.3517,
(PID.TID 0000.0001) >                     2.3667, 2.3761, 2.3832, 2.3862,
(PID.TID 0000.0001) >                     2.3881, 2.3863, 2.3867,
(PID.TID 0000.0001) > PTRACERS_EvPrRn(2)= 0.,
(PID.TID 0000.0001) ># tracer 3 - po4
(PID.TID 0000.0001) > PTRACERS_names(3)='PO4',
(PID.TID 0000.0001) > PTRACERS_long_names(3)='Phosphate (PO4) [mol P/m^3]',
(PID.TID 0000.0001) > PTRACERS_units(3)='mol/m^3',
(PID.TID 0000.0001) > PTRACERS_advScheme(3)=77,
(PID.TID 0000.0001) > PTRACERS_diffKh(3)=0.E3,
(PID.TID 0000.0001) > PTRACERS_diffKr(3)=3.E-5,
(PID.TID 0000.0001) > PTRACERS_useGMRedi(3)=.TRUE.,
(PID.TID 0000.0001) > PTRACERS_initialFile(3)='PO4.0005184000',
(PID.TID 0000.0001) >#- use F95 syntax (to be converted with -DNML_EXTENDED_F77 if needed)
(PID.TID 0000.0001) > PTRACERS_ref(1:15,3) = 0.5438E-3, 0.7821E-3, 1.1335E-3, 1.4913E-3,
(PID.TID 0000.0001) >                     1.8606E-3, 2.1986E-3, 2.3966E-3, 2.4187E-3,
(PID.TID 0000.0001) >                     2.4046E-3, 2.3291E-3, 2.2922E-3, 2.2886E-3,
(PID.TID 0000.0001) >                     2.2608E-3, 2.2356E-3, 2.2296E-3,
(PID.TID 0000.0001) >#PTRACERS_EvPrRn(3)= 0.,
(PID.TID 0000.0001) ># tracer 4 - dop
(PID.TID 0000.0001) > PTRACERS_names(4)='DOP',
(PID.TID 0000.0001) > PTRACERS_long_names(4)='Dissolved Organic Phosphorus (DOP) [mol P/m^3]',
(PID.TID 0000.0001) > PTRACERS_units(4)='mol/m^3',
(PID.TID 0000.0001) > PTRACERS_advScheme(4)=77,
(PID.TID 0000.0001) > PTRACERS_diffKh(4)=0.E3,
(PID.TID 0000.0001) > PTRACERS_diffKr(4)=3.E-5,
(PID.TID 0000.0001) > PTRACERS_useGMRedi(4)=.TRUE.,
(PID.TID 0000.0001) > PTRACERS_initialFile(4)='DOP.0005184000',
(PID.TID 0000.0001) >#- use F95 syntax (to be converted with -DNML_EXTENDED_F77 if needed)
(PID.TID 0000.0001) > PTRACERS_ref(1:15,4) = 15*0.,
(PID.TID 0000.0001) >#PTRACERS_EvPrRn(4)= 0.,
(PID.TID 0000.0001) ># tracer 5 - o2
(PID.TID 0000.0001) > PTRACERS_names(5)='O2',
(PID.TID 0000.0001) > PTRACERS_long_names(5)='Dissolved Oxygen (O2) [mol O/m^3]',
(PID.TID 0000.0001) > PTRACERS_units(5)='mol/m^3',
(PID.TID 0000.0001) > PTRACERS_advScheme(5)=77,
(PID.TID 0000.0001) > PTRACERS_diffKh(5)=0.E3,
(PID.TID 0000.0001) > PTRACERS_diffKr(5)=3.E-5,
(PID.TID 0000.0001) > PTRACERS_useGMRedi(5)=.TRUE.,
(PID.TID 0000.0001) > PTRACERS_initialFile(5)='O2.0005184000',
(PID.TID 0000.0001) >#- use F95 syntax (to be converted with -DNML_EXTENDED_F77 if needed)
(PID.TID 0000.0001) > PTRACERS_ref(1:15,5) = 0.2457, 0.2336, 0.1975, 0.1729,
(PID.TID 0000.0001) >                     0.1591, 0.1503, 0.1424, 0.1445,
(PID.TID 0000.0001) >                     0.1549, 0.1661, 0.1774, 0.1863,
(PID.TID 0000.0001) >                     0.1925, 0.2021, 0.2051,
(PID.TID 0000.0001) >#PTRACERS_EvPrRn(5)= 0.,
(PID.TID 0000.0001) > /
(PID.TID 0000.0001) 
(PID.TID 0000.0001)  PTRACERS_READPARMS: finished reading data.ptracers
(PID.TID 0000.0001)  GCHEM_READPARMS: opening data.gchem
(PID.TID 0000.0001)  OPEN_COPY_DATA_FILE: opening file data.gchem
(PID.TID 0000.0001) // =======================================================
(PID.TID 0000.0001) // Parameter file "data.gchem"
(PID.TID 0000.0001) // =======================================================
(PID.TID 0000.0001) > &GCHEM_PARM01
(PID.TID 0000.0001) >  useDIC=.TRUE.,
(PID.TID 0000.0001) >  nsubtime=1,
(PID.TID 0000.0001) > /
(PID.TID 0000.0001) 
(PID.TID 0000.0001)  GCHEM_READPARMS: finished reading data.gchem
(PID.TID 0000.0001)  DIC_READPARMS: opening data.dic
(PID.TID 0000.0001)  OPEN_COPY_DATA_FILE: opening file data.dic
(PID.TID 0000.0001) // =======================================================
(PID.TID 0000.0001) // Parameter file "data.dic"
(PID.TID 0000.0001) // =======================================================
(PID.TID 0000.0001) ># DIC parameters
(PID.TID 0000.0001) > &ABIOTIC_PARMS
(PID.TID 0000.0001) > /
(PID.TID 0000.0001) >
(PID.TID 0000.0001) > &BIOTIC_PARMS
(PID.TID 0000.0001) >  alphaUniform = 0.97e-10,
(PID.TID 0000.0001) >  rainRatioUniform = 5.e-2,
(PID.TID 0000.0001) >  KRemin = 0.95,
(PID.TID 0000.0001) > /
(PID.TID 0000.0001) >
(PID.TID 0000.0001) > &DIC_FORCING
(PID.TID 0000.0001) >  DIC_iceFile='fice.bin',
(PID.TID 0000.0001) >  DIC_windFile='tren_speed.bin',
(PID.TID 0000.0001) >  DIC_silicaFile='sillev1.bin',
(PID.TID 0000.0001) > /
(PID.TID 0000.0001) 
(PID.TID 0000.0001)  DIC_READPARMS: finished reading data.dic
(PID.TID 0000.0001) 
(PID.TID 0000.0001) // ===================================
(PID.TID 0000.0001) // DIC package parameters :
(PID.TID 0000.0001) // ===================================
(PID.TID 0000.0001) permil = /* Ref. density to convert mol/m3 to mol/kg */
(PID.TID 0000.0001)                 9.760858955588092E-04
(PID.TID 0000.0001)     ;
(PID.TID 0000.0001) Pa2Atm = /* Atmosph. pressure conversion coeff (to Atm) */
(PID.TID 0000.0001)                 1.013250000000000E+05
(PID.TID 0000.0001)     ;
(PID.TID 0000.0001) DOPfraction = /* Fraction of new production going to DOP */
(PID.TID 0000.0001)                 6.700000000000000E-01
(PID.TID 0000.0001)     ;
(PID.TID 0000.0001) KDOPRemin = /* DOP remineralization rate (1/s) */
(PID.TID 0000.0001)                 6.430041152263375E-08
(PID.TID 0000.0001)     ;
(PID.TID 0000.0001) KRemin = /* Remin power law coeff. */
(PID.TID 0000.0001)                 9.500000000000000E-01
(PID.TID 0000.0001)     ;
(PID.TID 0000.0001) zcrit = /* Minimum depth for biological activity (m) */
(PID.TID 0000.0001)                 5.000000000000000E+02
(PID.TID 0000.0001)     ;
(PID.TID 0000.0001) O2crit = /* Critical oxygen level (mol/m3) */
(PID.TID 0000.0001)                 4.000000000000000E-03
(PID.TID 0000.0001)     ;
(PID.TID 0000.0001) R_OP = /* Stochiometric ratio R_OP */
(PID.TID 0000.0001)                -1.700000000000000E+02
(PID.TID 0000.0001)     ;
(PID.TID 0000.0001) R_CP = /* Stochiometric ratio R_CP */
(PID.TID 0000.0001)                 1.170000000000000E+02
(PID.TID 0000.0001)     ;
(PID.TID 0000.0001) R_NP = /* Stochiometric ratio R_NP */
(PID.TID 0000.0001)                 1.600000000000000E+01
(PID.TID 0000.0001)     ;
(PID.TID 0000.0001) R_FeP = /* Stochiometric ratio R_FeP */
(PID.TID 0000.0001)                 4.680000000000000E-04
(PID.TID 0000.0001)     ;
(PID.TID 0000.0001) zca = /* Scale depth for CaCO3 remineralization (m) */
(PID.TID 0000.0001)                 3.500000000000000E+03
(PID.TID 0000.0001)     ;
(PID.TID 0000.0001) parfrac = /* Fraction of Qsw that is PAR */
(PID.TID 0000.0001)                 4.000000000000000E-01
(PID.TID 0000.0001)     ;
(PID.TID 0000.0001) k0 = /* Light attentuation coefficient, water (1/m) */
(PID.TID 0000.0001)                 2.000000000000000E-02
(PID.TID 0000.0001)     ;
(PID.TID 0000.0001) kchl = /* Light attentuation coefficient, chlorophyll (m2/mg) */
(PID.TID 0000.0001)                 2.000000000000000E-02
(PID.TID 0000.0001)     ;
(PID.TID 0000.0001) lit0 = /* Half saturation light constant (W/m2) */
(PID.TID 0000.0001)                 3.000000000000000E+01
(PID.TID 0000.0001)     ;
(PID.TID 0000.0001) KPO4 = /* Half saturation phosphate constant (mol/m3) */
(PID.TID 0000.0001)                 5.000000000000000E-04
(PID.TID 0000.0001)     ;
(PID.TID 0000.0001) KFE = /* Half saturation fe constant (mol/m3) */
(PID.TID 0000.0001)                 1.200000000000000E-07
(PID.TID 0000.0001)     ;
(PID.TID 0000.0001) alpfe = /* Solubility of aeolian fe */
(PID.TID 0000.0001)                 1.000000000000000E-02
(PID.TID 0000.0001)     ;
(PID.TID 0000.0001) fesedflux_pcm = /* Sediment Fe flux = fesedflux_pcm*pflux+FeIntSec */
(PID.TID 0000.0001)                 7.208000000000001E-02
(PID.TID 0000.0001)     ;
(PID.TID 0000.0001) FeIntSec = /* Sediment Fe flux = fesedflux_pcm * pflux + FeIntSec */
(PID.TID 0000.0001)                 5.787037037037037E-12
(PID.TID 0000.0001)     ;
(PID.TID 0000.0001) freefemax = /* Max solubility of free iron (mol/m3) */
(PID.TID 0000.0001)                 3.000000000000000E-07
(PID.TID 0000.0001)     ;
(PID.TID 0000.0001) KScav = /* Iron scavenging rate */
(PID.TID 0000.0001)                 6.108539094650206E-09
(PID.TID 0000.0001)     ;
(PID.TID 0000.0001) ligand_stab = /* Ligand-free iron stability constant (m3/mol) */
(PID.TID 0000.0001)                 1.000000000000000E+08
(PID.TID 0000.0001)     ;
(PID.TID 0000.0001) ligand_tot = /* Total free ligand  (mol/m3) */
(PID.TID 0000.0001)                 1.000000000000000E-06
(PID.TID 0000.0001)     ;
(PID.TID 0000.0001) alphaUniform = /* Timescale for biological activity */
(PID.TID 0000.0001)                 9.700000000000000E-11
(PID.TID 0000.0001)     ;
(PID.TID 0000.0001) rainRatioUniform= /* Inorganic/organic carbon rain ratio */
(PID.TID 0000.0001)                 5.000000000000000E-02
(PID.TID 0000.0001)     ;
(PID.TID 0000.0001) QSW_underice  =  /* Flag for Qsw under Sea-Ice (i.e. SI fract included) */
(PID.TID 0000.0001)                   F
(PID.TID 0000.0001)     ;
(PID.TID 0000.0001) DIC_windFile =  /* File name of wind speeds */
(PID.TID 0000.0001)               'tren_speed.bin'
(PID.TID 0000.0001)     ;
(PID.TID 0000.0001) DIC_atmospFile=  /* File name of atmospheric pressure*/
(PID.TID 0000.0001)               ''
(PID.TID 0000.0001)     ;
(PID.TID 0000.0001) DIC_iceFile =  /* File name of seaice fraction */
(PID.TID 0000.0001)               'fice.bin'
(PID.TID 0000.0001)     ;
(PID.TID 0000.0001) DIC_ironFile =  /* File name of aeolian iron flux */
(PID.TID 0000.0001)               ''
(PID.TID 0000.0001)     ;
(PID.TID 0000.0001) DIC_silicaFile=  /* File name of surface silica */
(PID.TID 0000.0001)               'sillev1.bin'
(PID.TID 0000.0001)     ;
(PID.TID 0000.0001) DIC_parFile=  /* File name of photosynthetically available radiation */
(PID.TID 0000.0001)               ''
(PID.TID 0000.0001)     ;
(PID.TID 0000.0001) DIC_chlaFile=  /* File name of chlorophyll climatology */
(PID.TID 0000.0001)               ''
(PID.TID 0000.0001)     ;
(PID.TID 0000.0001) DIC_forcingPeriod = /* Periodic forcing parameter specific for DIC (s) */
(PID.TID 0000.0001)                 2.592000000000000E+06
(PID.TID 0000.0001)     ;
(PID.TID 0000.0001) DIC_forcingCycle = /* Periodic forcing parameter specific for DIC (s) */
(PID.TID 0000.0001)                 3.110400000000000E+07
(PID.TID 0000.0001)     ;
(PID.TID 0000.0001) dic_int1 =  /*  */
(PID.TID 0000.0001)                       0
(PID.TID 0000.0001)     ;
(PID.TID 0000.0001) dic_int2 =  /*  */
(PID.TID 0000.0001)                       0
(PID.TID 0000.0001)     ;
(PID.TID 0000.0001) dic_int3 =  /*  */
(PID.TID 0000.0001)                       0
(PID.TID 0000.0001)     ;
(PID.TID 0000.0001) dic_int4 =  /*  */
(PID.TID 0000.0001)                       0
(PID.TID 0000.0001)     ;
(PID.TID 0000.0001) dic_pCO2 = /* Atmospheric pCO2 to be read in data.dic */
(PID.TID 0000.0001)                 2.780000000000000E-04
(PID.TID 0000.0001)     ;
(PID.TID 0000.0001)  DIAGNOSTICS_READPARMS: opening data.diagnostics
(PID.TID 0000.0001)  OPEN_COPY_DATA_FILE: opening file data.diagnostics
(PID.TID 0000.0001) // =======================================================
(PID.TID 0000.0001) // Parameter file "data.diagnostics"
(PID.TID 0000.0001) // =======================================================
(PID.TID 0000.0001) ># Diagnostic Package Choices
(PID.TID 0000.0001) >#--------------------
(PID.TID 0000.0001) >#  dumpAtLast (logical): always write output at the end of simulation (default=F)
(PID.TID 0000.0001) >#  diag_mnc   (logical): write to NetCDF files (default=useMNC)
(PID.TID 0000.0001) >#--for each output-stream:
(PID.TID 0000.0001) >#  fileName(n) : prefix of the output file name (max 80c long) for outp.stream n
(PID.TID 0000.0001) >#  frequency(n):< 0 : write snap-shot output every |frequency| seconds
(PID.TID 0000.0001) >#               > 0 : write time-average output every frequency seconds
(PID.TID 0000.0001) >#  timePhase(n)     : write at time = timePhase + multiple of |frequency|
(PID.TID 0000.0001) >#    averagingFreq  : frequency (in s) for periodic averaging interval
(PID.TID 0000.0001) >#    averagingPhase : phase     (in s) for periodic averaging interval
(PID.TID 0000.0001) >#    repeatCycle    : number of averaging intervals in 1 cycle
(PID.TID 0000.0001) >#  levels(:,n) : list of levels to write to file (Notes: declared as REAL)
(PID.TID 0000.0001) >#                when this entry is missing, select all common levels of this list
(PID.TID 0000.0001) >#  fields(:,n) : list of selected diagnostics fields (8.c) in outp.stream n
(PID.TID 0000.0001) >#                (see "available_diagnostics.log" file for the full list of diags)
(PID.TID 0000.0001) >#  missing_value(n) : missing value for real-type fields in output file "n"
(PID.TID 0000.0001) >#  fileFlags(n)     : specific code (8c string) for output file "n"
(PID.TID 0000.0001) >#--------------------
(PID.TID 0000.0001) > &DIAGNOSTICS_LIST
(PID.TID 0000.0001) >  fields(1:10,1) = 'ETAN    ','ETANSQ  ','DETADT2 ','PHIBOT  ','PHIBOTSQ',
(PID.TID 0000.0001) >                   'DICTFLX ','DICOFLX ','DICCFLX ','DICPCO2 ','DICPHAV ',
(PID.TID 0000.0001) >   levels(1,1) = 1.,
(PID.TID 0000.0001) >   fileName(1) = 'surfDiag',
(PID.TID 0000.0001) >  frequency(1) = 432000.,
(PID.TID 0000.0001) >  frequency(1) = 172800.,
(PID.TID 0000.0001) >  fields(1:18,2) = 'UVEL    ','VVEL    ','WVEL    ','PHIHYD  ',
(PID.TID 0000.0001) >                   'UVELMASS','VVELMASS',
(PID.TID 0000.0001) >                   'UVELSQ  ','VVELSQ  ','UV_VEL_C','THETASQ ',
(PID.TID 0000.0001) >                   'THETA   ','UTHMASS ','VTHMASS ','WVELTH  ',
(PID.TID 0000.0001) >                   'SALT    ','USLTMASS','VSLTMASS','WVELSLT ',
(PID.TID 0000.0001) >#  fileName(2) = 'dynDiag',
(PID.TID 0000.0001) >  frequency(2) = 0.,
(PID.TID 0000.0001) >  fields(1:5,3)  = 'DICBIOA ','DICCARB ',
(PID.TID 0000.0001) >                   'TRAC05  ','ADVxTr05','DFrITr05',
(PID.TID 0000.0001) >#  fileName(3) = 'dicDiag',
(PID.TID 0000.0001) >  frequency(3) = 172800.,
(PID.TID 0000.0001) >  fields(1:8,4)  = 'ADVx_TH ','ADVy_TH ','ADVr_TH ',
(PID.TID 0000.0001) >                   'DFxE_TH ','DFyE_TH ','DFrE_TH ',
(PID.TID 0000.0001) >                   'DFrI_TH ',
(PID.TID 0000.0001) >                   'ADVx_SLT',
(PID.TID 0000.0001) >#  fileName(4) = 'flxDiag',
(PID.TID 0000.0001) >  frequency(4) = 0.,
(PID.TID 0000.0001) > /
(PID.TID 0000.0001) >
(PID.TID 0000.0001) >#--------------------
(PID.TID 0000.0001) ># Parameter for Diagnostics of per level statistics:
(PID.TID 0000.0001) >#--------------------
(PID.TID 0000.0001) >#  diagSt_mnc (logical): write stat-diags to NetCDF files (default=diag_mnc)
(PID.TID 0000.0001) >#  diagSt_regMaskFile : file containing the region-mask to read-in
(PID.TID 0000.0001) >#  nSetRegMskFile   : number of region-mask sets within the region-mask file
(PID.TID 0000.0001) >#  set_regMask(i)   : region-mask set-index that identifies the region "i"
(PID.TID 0000.0001) >#  val_regMask(i)   : region "i" identifier value in the region mask
(PID.TID 0000.0001) >#--for each output-stream:
(PID.TID 0000.0001) >#  stat_fName(n) : prefix of the output file name (max 80c long) for outp.stream n
(PID.TID 0000.0001) >#  stat_freq(n):< 0 : write snap-shot output every |stat_freq| seconds
(PID.TID 0000.0001) >#               > 0 : write time-average output every stat_freq seconds
(PID.TID 0000.0001) >#  stat_phase(n)    : write at time = stat_phase + multiple of |stat_freq|
(PID.TID 0000.0001) >#  stat_region(:,n) : list of "regions" (default: 1 region only=global)
(PID.TID 0000.0001) >#  stat_fields(:,n) : list of selected diagnostics fields (8.c) in outp.stream n
(PID.TID 0000.0001) >#                (see "available_diagnostics.log" file for the full list of diags)
(PID.TID 0000.0001) >#--------------------
(PID.TID 0000.0001) > &DIAG_STATIS_PARMS
(PID.TID 0000.0001) >#- an example just to check the agreement with MONITOR output:
(PID.TID 0000.0001) >#stat_fields(1:5,1)  = 'ETAN    ','UVEL    ','VVEL    ','WVEL    ', 'THETA   ',
(PID.TID 0000.0001) ># stat_fName(1) = 'dynStDiag',
(PID.TID 0000.0001) >#  stat_freq(1) = -864000.,
(PID.TID 0000.0001) ># stat_phase(1) = 0.,
(PID.TID 0000.0001) > /
(PID.TID 0000.0001) >
(PID.TID 0000.0001) 
(PID.TID 0000.0001) S/R DIAGNOSTICS_READPARMS, read namelist "diagnostics_list": start
(PID.TID 0000.0001) S/R DIAGNOSTICS_READPARMS, read namelist "diagnostics_list": OK
(PID.TID 0000.0001) S/R DIAGNOSTICS_READPARMS, read namelist "DIAG_STATIS_PARMS": start
(PID.TID 0000.0001) S/R DIAGNOSTICS_READPARMS, read namelist "DIAG_STATIS_PARMS": OK
(PID.TID 0000.0001)  DIAGNOSTICS_READPARMS: global parameter summary:
(PID.TID 0000.0001)  dumpAtLast = /* always write time-ave diags at the end */
(PID.TID 0000.0001)                   F
(PID.TID 0000.0001)     ;
(PID.TID 0000.0001)  diag_mnc =   /* write NetCDF output files */
(PID.TID 0000.0001)                   F
(PID.TID 0000.0001)     ;
(PID.TID 0000.0001)  useMissingValue = /* put MissingValue where mask = 0 */
(PID.TID 0000.0001)                   F
(PID.TID 0000.0001)     ;
(PID.TID 0000.0001)  diagCG_maxIters = /* max number of iters in diag_cg2d */
(PID.TID 0000.0001)                    1000
(PID.TID 0000.0001)     ;
(PID.TID 0000.0001)  diagCG_resTarget = /* residual target for diag_cg2d */
(PID.TID 0000.0001)                 1.000000000000000E-13
(PID.TID 0000.0001)     ;
(PID.TID 0000.0001)  diagCG_pcOffDFac = /* preconditioner off-diagonal factor */
(PID.TID 0000.0001)                 9.611687812379854E-01
(PID.TID 0000.0001)     ;
(PID.TID 0000.0001) -----------------------------------------------------
(PID.TID 0000.0001)  DIAGNOSTICS_READPARMS: active diagnostics summary:
(PID.TID 0000.0001) -----------------------------------------------------
(PID.TID 0000.0001) Creating Output Stream: surfDiag
(PID.TID 0000.0001) Output Frequency:     172800.000000 ; Phase:           0.000000
(PID.TID 0000.0001)  Averaging Freq.:     172800.000000 , Phase:           0.000000 , Cycle:   1
(PID.TID 0000.0001)  missing value: -9.990000000000E+02
(PID.TID 0000.0001)  Levels:       1.
(PID.TID 0000.0001)  Fields:    ETAN     ETANSQ   DETADT2  PHIBOT   PHIBOTSQ DICTFLX  DICOFLX  DICCFLX  DICPCO2  DICPHAV
(PID.TID 0000.0001) -----------------------------------------------------
(PID.TID 0000.0001)  DIAGNOSTICS_READPARMS: statistics diags. summary:
(PID.TID 0000.0001) -----------------------------------------------------
(PID.TID 0000.0001) 
(PID.TID 0000.0001) SET_PARMS: done
(PID.TID 0000.0001) Enter INI_VERTICAL_GRID: setInterFDr=    T ; setCenterDr=    F
(PID.TID 0000.0001) %MON XC_max                       =   3.5859375000000E+02
(PID.TID 0000.0001) %MON XC_min                       =   1.4062500000000E+00
(PID.TID 0000.0001) %MON XC_mean                      =   1.8000000000000E+02
(PID.TID 0000.0001) %MON XC_sd                        =   1.0391987692599E+02
(PID.TID 0000.0001) %MON XG_max                       =   3.5718750000000E+02
(PID.TID 0000.0001) %MON XG_min                       =   0.0000000000000E+00
(PID.TID 0000.0001) %MON XG_mean                      =   1.7859375000000E+02
(PID.TID 0000.0001) %MON XG_sd                        =   1.0391987692599E+02
(PID.TID 0000.0001) %MON DXC_max                      =   3.1259246843155E+05
(PID.TID 0000.0001) %MON DXC_min                      =   7.6737143816223E+03
(PID.TID 0000.0001) %MON DXC_mean                     =   1.9908248704234E+05
(PID.TID 0000.0001) %MON DXC_sd                       =   9.6190602240067E+04
(PID.TID 0000.0001) %MON DXF_max                      =   3.1259246843155E+05
(PID.TID 0000.0001) %MON DXF_min                      =   7.6737143816223E+03
(PID.TID 0000.0001) %MON DXF_mean                     =   1.9908248704234E+05
(PID.TID 0000.0001) %MON DXF_sd                       =   9.6190602240067E+04
(PID.TID 0000.0001) %MON DXG_max                      =   3.1268664380261E+05
(PID.TID 0000.0001) %MON DXG_min                      =   0.0000000000000E+00
(PID.TID 0000.0001) %MON DXG_mean                     =   1.9902252711933E+05
(PID.TID 0000.0001) %MON DXG_sd                       =   9.6314600686012E+04
(PID.TID 0000.0001) %MON DXV_max                      =   3.1268664380261E+05
(PID.TID 0000.0001) %MON DXV_min                      =   0.0000000000000E+00
(PID.TID 0000.0001) %MON DXV_mean                     =   1.9902252711933E+05
(PID.TID 0000.0001) %MON DXV_sd                       =   9.6314600686012E+04
(PID.TID 0000.0001) %MON YC_max                       =   8.8593750000000E+01
(PID.TID 0000.0001) %MON YC_min                       =  -8.8593750000000E+01
(PID.TID 0000.0001) %MON YC_mean                      =   0.0000000000000E+00
(PID.TID 0000.0001) %MON YC_sd                        =   5.1955180880375E+01
(PID.TID 0000.0001) %MON YG_max                       =   8.7187500000000E+01
(PID.TID 0000.0001) %MON YG_min                       =  -9.0000000000000E+01
(PID.TID 0000.0001) %MON YG_mean                      =  -1.4062500000000E+00
(PID.TID 0000.0001) %MON YG_sd                        =   5.1955180880375E+01
(PID.TID 0000.0001) %MON DYC_max                      =   3.1268664380261E+05
(PID.TID 0000.0001) %MON DYC_min                      =   3.1268664380261E+05
(PID.TID 0000.0001) %MON DYC_mean                     =   3.1268664380260E+05
(PID.TID 0000.0001) %MON DYC_sd                       =   4.3655745685101E-09
(PID.TID 0000.0001) %MON DYF_max                      =   3.1268664380261E+05
(PID.TID 0000.0001) %MON DYF_min                      =   3.1268664380261E+05
(PID.TID 0000.0001) %MON DYF_mean                     =   3.1268664380260E+05
(PID.TID 0000.0001) %MON DYF_sd                       =   4.3655745685101E-09
(PID.TID 0000.0001) %MON DYG_max                      =   3.1268664380261E+05
(PID.TID 0000.0001) %MON DYG_min                      =   3.1268664380261E+05
(PID.TID 0000.0001) %MON DYG_mean                     =   3.1268664380260E+05
(PID.TID 0000.0001) %MON DYG_sd                       =   4.3655745685101E-09
(PID.TID 0000.0001) %MON DYU_max                      =   3.1268664380261E+05
(PID.TID 0000.0001) %MON DYU_min                      =   3.1268664380261E+05
(PID.TID 0000.0001) %MON DYU_mean                     =   3.1268664380260E+05
(PID.TID 0000.0001) %MON DYU_sd                       =   4.3655745685101E-09
(PID.TID 0000.0001) %MON RA_max                       =   9.7733676797555E+10
(PID.TID 0000.0001) %MON RA_min                       =   2.3992270990190E+09
(PID.TID 0000.0001) %MON RA_mean                      =   6.2244185031956E+10
(PID.TID 0000.0001) %MON RA_sd                        =   3.0074496923945E+10
(PID.TID 0000.0001) %MON RAW_max                      =   9.7733676797555E+10
(PID.TID 0000.0001) %MON RAW_min                      =   2.3992270990190E+09
(PID.TID 0000.0001) %MON RAW_mean                     =   6.2244185031956E+10
(PID.TID 0000.0001) %MON RAW_sd                       =   3.0074496923945E+10
(PID.TID 0000.0001) %MON RAS_max                      =   9.7763121221868E+10
(PID.TID 0000.0001) %MON RAS_min                      =   0.0000000000000E+00
(PID.TID 0000.0001) %MON RAS_mean                     =   6.2225438247155E+10
(PID.TID 0000.0001) %MON RAS_sd                       =   3.0113265689232E+10
(PID.TID 0000.0001) %MON RAZ_max                      =   9.7763121221868E+10
(PID.TID 0000.0001) %MON RAZ_min                      =   0.0000000000000E+00
(PID.TID 0000.0001) %MON RAZ_mean                     =   6.2225438247155E+10
(PID.TID 0000.0001) %MON RAZ_sd                       =   3.0113265689232E+10
(PID.TID 0000.0001) %MON AngleCS_max                  =   1.0000000000000E+00
(PID.TID 0000.0001) %MON AngleCS_min                  =   1.0000000000000E+00
(PID.TID 0000.0001) %MON AngleCS_mean                 =   1.0000000000000E+00
(PID.TID 0000.0001) %MON AngleCS_sd                   =   0.0000000000000E+00
(PID.TID 0000.0001) %MON AngleSN_max                  =   0.0000000000000E+00
(PID.TID 0000.0001) %MON AngleSN_min                  =   0.0000000000000E+00
(PID.TID 0000.0001) %MON AngleSN_mean                 =   0.0000000000000E+00
(PID.TID 0000.0001) %MON AngleSN_sd                   =   0.0000000000000E+00
(PID.TID 0000.0001)  MDS_READ_FIELD: opening global file: bathy.bin
(PID.TID 0000.0001) // =======================================================
(PID.TID 0000.0001) // Field Model R_low (ini_masks_etc)
(PID.TID 0000.0001) // CMIN =         -5.200000000000000E+03
(PID.TID 0000.0001) // CMAX =         -5.000000000000000E+01
(PID.TID 0000.0001) // CINT =          1.907407407407407E+02
(PID.TID 0000.0001) // SYMBOLS (CMIN->CMAX): -abcdefghijklmnopqrstuvwxyz+
(PID.TID 0000.0001) //                  0.0: .
(PID.TID 0000.0001) // RANGE I (Lo:Hi:Step):(    -3:   132:     1)
(PID.TID 0000.0001) // RANGE J (Lo:Hi:Step):(    68:    -3:    -1)
(PID.TID 0000.0001) // RANGE K (Lo:Hi:Step):(   1:   1:   1)
(PID.TID 0000.0001) // =======================================================
(PID.TID 0000.0001) K =   1
(PID.TID 0000.0001) //                I=6       I=16      I=26      I=36      I=46      I=56      I=66      I=68      I=78      I=88      I=98      I=108     I=118     I=128
(PID.TID 0000.0001) // |--J--|321012345|789012345|789012345|789012345|789012345|789012345|789012345|781234567|901234567|901234567|901234567|901234567|901234567|901234567|9012
(PID.TID 0000.0001) //     68 ................................................................................................................................................
(PID.TID 0000.0001) //     67 ................................................................................................................................................
(PID.TID 0000.0001) //     66 ................................................................................................................................................
(PID.TID 0000.0001) //     65 ................................................................................................................................................
(PID.TID 0000.0001) //     64 ................................................................................................................................................
(PID.TID 0000.0001) //     63 ................................................................................................................................................
(PID.TID 0000.0001) //     62 ................................................................................................................................................
(PID.TID 0000.0001) //     61 +zsnovwy++...+zzzzzz++++...............................................................................................................++zsnovwy
(PID.TID 0000.0001) //     60 +zrmmnot.....+zzzzzzzzz+.........................................................................................y....................zz+zrmmnot
(PID.TID 0000.0001) //     59 omjjklnoqyz++zyzzzzzzzz.........................................................................................yxwvvyy..............zzromjjklno
(PID.TID 0000.0001) //     58 sponmlmoqwzyzzzzzzzz++.............................................................................................wrtxz............zytssponmlmo
(PID.TID 0000.0001) //     57 rqmmmkmmz............................................................................................................tvz............xwurrqmmmkmm
(PID.TID 0000.0001) //     56 vqjmmuyz..............................................................................................................yx........yyyyy..zvqjmmuyz
(PID.TID 0000.0001) //     55 xwrrux..............................................................++......++.......................................+yuu.....wonrwyzzzyxwrrux..
(PID.TID 0000.0001) //     54 wyz++............................................................ymnz+++.ymnz+++......................................wmkkr..qmmotsqooruwyz++...
(PID.TID 0000.0001) //     53 v...++.................................................zzzz...omsjjjjm++sjjjjm+++.....zjghl...........................zojjjlkkloronmpvxtv...++..
(PID.TID 0000.0001) //     52 ....++................................................+xxyy...ggijjljjmpijjljjmpz.++tdeffhjm............................zmjiijlqnljlqtpo....++..
(PID.TID 0000.0001) //     51 .......................................................xvvx..ddfdhjsqmpqdhjsqmpqdbcddddefghjlz..........................zylgghhikkjhigqy........
(PID.TID 0000.0001) //     50 z+.....................................................+uutw---aaaa-----aaa------aaaabddefghjnq..........................zvogdefglkgfddpz+......
(PID.TID 0000.0001) //     49 dg+....................................................roqja--------------------------abddefhmmx..........................+whddehlnjdddddg+.....
(PID.TID 0000.0001) //     48 oxy.....................................................va------a-------a--------------addefgjlx.....................++nj+wfddfgjnmkgeddoxy.....
(PID.TID 0000.0001) //     47 t......................................................a------a----------------------aaaddefgiks...................+qfbaaahebddgoqnhfa--t.......
(PID.TID 0000.0001) //     46 v.....................................................z------d--a-d-----a-d----------------abddg..................lfdda-----bdhksrqhdacev.......
(PID.TID 0000.0001) //     45 g.....................................................b-----fb---cdhfe---cdhfe-------------aadddk................oeaaddb-abcehlnmkgcabjdg.......
(PID.TID 0000.0001) //     44 .................................................+.vgs-----ci----aaa-----aaa--------------bddddefu..............xf--ddb---adhlkihjd-bfgi........
(PID.TID 0000.0001) //     43 ................................................+ywfdng-------------a-a-----a-a--------abddddddefhr............+vd--ab----afkjgccda-deju........
(PID.TID 0000.0001) //     42 ...............................................+zveddhna-------------dde-----ddedbba----addddddeffh............+vd-------acgifaa-aaadis.........
(PID.TID 0000.0001) //     41 .........................op.....................qdeeddn---a--a--------dd------ddheddea---abddddeefgizw.......t+++n-------adifd-----dem..........
(PID.TID 0000.0001) //     40 .........................ljn.................zom----ddil---aac---fkic-df-fkic-dfdddgja------ddddegghjl.......tmv.uq------adifa--bbadfs..........
(PID.TID 0000.0001) //     39 ........................zhijj.....ppq.......rjmxa---bdfiea----acaigefghfaigefghf---cda-------adefggijjl......jkrvt.vnu--adejfa-aadehjm..........
(PID.TID 0000.0001) //     38 .......................nhggghr...llmn+.....vngt.g--aadfib---------ea---a--ea---aa---------bbbaddefggjhkjiv.....wphiggrna-agifaa---cljn..........
(PID.TID 0000.0001) //     37 ....................wttlheefes..+jjkmu+....oggx.x---adig-----addd-------d----------------bbbdddddeefghjkiggh...ojizsjssjbadfhca----bdj..........
(PID.TID 0000.0001) //     36 ......................qghfdddpq.+hiipoz....rrt...--adiige----gdefd-----cfd-----caebb-dd--abbdddddeeghikjhghhjy.vt......mgddddhfbaa-adh..........
(PID.TID 0000.0001) //     35 ......................adgieddkos+gghksy....tt....--gdimmnheeddcdfd---a--fd---a--ackfbaabddddddddefffgghkjihhjqt.........+sfeddfhgfefhdd+........
(PID.TID 0000.0001) //     34 l+owgp+..............laddfiighojeefght........wjlldfdelfedhkigddddd--a--ddd--a---aehdddddddddddddeeggghjjjjlqolm..........zjfedgkhfegdddl+owgp+.
(PID.TID 0000.0001) //     33 caaddgn.............jcadddfkggoedddged.........zxxifefkeddhnmgddddd-----ddd-------afddeddddddddddefgghijjkmqomkv...........zfeefkkhhddcccaaddgn.
(PID.TID 0000.0001) //     32 fdaddfl............kdbadddeiigjddddfddd.........yy..zomsrqjqpjdefeda----feda-----aaadddddddddddddeeefghjjjjkqnr..............kjfeffddfgifdaddfl.
(PID.TID 0000.0001) //     31 heddddes..........vgdddsggfhiidaaddfdddd........xxv.....t.srroljiea-----iea------faaaadddddddddddeeefijiihhhiii................nea--adgkheddddes
(PID.TID 0000.0001) //     30 hdde--di..........rgdfehqiggjtaaaddfaaa-fx...zxxxxw++....mj.spjhdaad---adaad---adge-aaaadefddddddeefikiggggfffe................zd---adhlhdde--di
(PID.TID 0000.0001) //     29 heda--aey.........rigfffhyjjjlaaadddaaaa-ailnmxxxx++++.+..qoqqklfdddfffdfdddfffdfhka-acbddifdefgggfikjheeggfeddl...............vb---aehlheda--ae
(PID.TID 0000.0001) //     36 ......................qghfdddpq.+hiipoz....rrt...--adiige----gdefd-----cfd-----caebb-dd--abbdddddeeghikjhghhjy.vt......mgddddhfbaa-adh..........
(PID.TID 0000.0001) //     35 ......................adgieddkos+gghksy....tt....--gdimmnheeddcdfd---a--fd---a--ackfbaabddddddddefffgghkjihhjqt.........+sfeddfhgfefhdd+........
(PID.TID 0000.0001) //     34 l+owgp+..............laddfiighojeefght........wjlldfdelfedhkigddddd--a--ddd--a---aehdddddddddddddeeggghjjjjlqolm..........zjfedgkhfegdddl+owgp+.
(PID.TID 0000.0001) //     33 caaddgn.............jcadddfkggoedddged.........zxxifefkeddhnmgddddd-----ddd-------afddeddddddddddefgghijjkmqomkv...........zfeefkkhhddcccaaddgn.
(PID.TID 0000.0001) //     32 fdaddfl............kdbadddeiigjddddfddd.........yy..zomsrqjqpjdefeda----feda-----aaadddddddddddddeeefghjjjjkqnr..............kjfeffddfgifdaddfl.
(PID.TID 0000.0001) //     31 heddddes..........vgdddsggfhiidaaddfdddd........xxv.....t.srroljiea-----iea------faaaadddddddddddeeefijiihhhiii................nea--adgkheddddes
(PID.TID 0000.0001) //     30 hdde--di..........rgdfehqiggjtaaaddfaaa-fx...zxxxxw++....mj.spjhdaad---adaad---adge-aaaadefddddddeefikiggggfffe................zd---adhlhdde--di
(PID.TID 0000.0001) //     29 heda--aey.........rigfffhyjjjlaaadddaaaa-ailnmxxxx++++.+..qoqqklfdddfffdfdddfffdfhka-acbddifdefgggfikjheeggfeddl...............vb---aehlheda--ae
(PID.TID 0000.0001) //     28 hfd---afy.........+kj.ddfojkhfa-addg--d-c-ddd-jx++.....rjggpmigqkllopidckllopidc-dlaaadddeffffggghijkigefghgfddd..............+ec---ddjjhfd---af
(PID.TID 0000.0001) //     27 heda--ag..........zm..edfxikiddaaafla-a----dedr+........vvgklgftkllpqqkckllpqqkc--dddefornkfffgghhjkjhgfhhgeddddi.............rdda--dfjkheda--ag
(PID.TID 0000.0001) //     26 heda---h..........r+..ddjiimieddaadl-a-----dsw+..........yqnlkkjnlnvsqibnlnvsqib--ddddiffkkjgfghhhjkjhgfeefedddgfd............+fdb--afilheda---h
(PID.TID 0000.0001) //     25 jdd--bkn.........mmz.ndfffimlfddddejda---abfw.............zpvsrsnlljrs--nlljrs---addddddedggggghhijkiggfffffeeggdde...........nfea--adfljdd--bkn
(PID.TID 0000.0001) //     24 fd---gngu.......zkjx.fddddegkiffdddjd---aajm..............zppsotngdhsp--ngdhsp----bdddddddefhihijjljjhghggggghjedff..........pheb---ddgkfd---gng
(PID.TID 0000.0001) //     23 fedackddm.......tfejsd---degikiffeefdccfba-m..............+gmtmomidiqi--midiqi-----dddddifeefgghijklmkkjiiihihgffff........zoledcaabdfhkfedackdd
(PID.TID 0000.0001) //     22 heddhaadjz.....uqbcnnfabdfddffjifffolnljda--+.............zdntmnmngiq---mngiq------ddddddeeeeefghijlmkjihhhihggfeev........ohgfqihdddfilheddhaad
(PID.TID 0000.0001) //     21 fefgebabgq.....jpabrofdfiddddfilihjleeonb-abn....++.......sdluotmqjll---mqjll------dddddddddeffghhikmjjihhhihggfef+.......shgfflgiddfhkkfefgebab
(PID.TID 0000.0001) //     20 gggdb--addw.zgegi-allghkdddddegllhhgfeddc--kl+vhddnw......dccotrr.tnd--ar.tnd--aa--------ddddffffhhjmjiiiiihgggfff.......xfbbbdddffggjkjgggdb--a
(PID.TID 0000.0001) //     19 jjfda--addddgkefdadkknkfd-adeegnkihhhgfddddddda------v...kddadsvv..via-bv..via-bb--d------abddddeegjmjgfgijihggffp......zfa-aaaddddfgklljjfda--a
(PID.TID 0000.0001) //     18 hgddca-dddaagndddflnkjheb-adefglllllkjhfeeddddba-----df..gddbdfux..olifdx..olifdba-ddd------adddeehkmihfefijihgggy......h------abddfhkljhgddca-d
(PID.TID 0000.0001) //     17 ggffdddddaabca-dgnomnmjfcbddfgikkklklljhgggedddddddddddn+jddbddr..yxxxqk..yxxxqk--addd------adddfghkljigeeefgikii+...++p---aaa--adddgjkjggffdddd
(PID.TID 0000.0001) //     16 lifeddfedccb--aglnpqpnmgddfpunjjjjjjjklkjihgffeddddeefdjqgdcbde..tsojdaa.tsojdaa-aadddbaaaaadddefgjlljhgeeeeffhjk....++j---------addfgkllifeddfe
(PID.TID 0000.0001) //     15 lljhgghgdcddb-dfdefffffedeou.xnmjjgghijjjkkjjhgggghikjgggldddekzxxvvga--xxvvga--aaaabcddddddddeghiklkihfedddddefi....+zsqmb-afaaabddffhjlljhgghg
(PID.TID 0000.0001) //     14 jnonnkhikkjjhfc-bfmlhfeedddglxytmjdefhhhhhiihgfedghikljifeddfhjxyydba--ayydba--aaabcdddefhfddefhjmljhhfedddddddfgj..+zzsqpnnqjigifffdefhjnonnkhi
(PID.TID 0000.0001) //     13 ijnomnlgddfeeb---gjfeddddddhgmsrjgddeefgggggedddddefgjlmghgfjgkusaa---aasaa---aabcddghiiijmljihimljhhgeddddaadddfjlllkjihggjkmwvjddfddefijnomnlg
(PID.TID 0000.0001) //     12 fhifec----bb------------abddlnnrsiddddeedddddddddddddfhjkkiijfd----aaddc---aaddccdegijlnkihjihggggdddddccdddddddddfihggggggkkjkkjjodddeffhifec--
(PID.TID 0000.0001) //     11 a----------a-----------abbdddgmmqsjeeededddeddeddddddeeghkllnkjecacddeffcacddeffgggikmlkihgeddedbaddaaaaaaaaabbbddeghhgilolvxomnllkefgdaa-------
(PID.TID 0000.0001) //     10 ----dcaa-aaaaaaaabbdebcbddfghhjjmmjjjkprohiijkhhgggghhhggjjlommnnmijijklnmijijklnmmllkjggeddddaaaaaaaddaaabdddddefgill..zqjkigddddddbaa-----dcaa
(PID.TID 0000.0001) //      9 adddkhefjfdddddhfdekpy..xpnnpponxxyzz........zyz+y...zzxxwsmmmmmkjjjmmmkkjjjmmmkkhgggfdeeeddddddddddddddddddddeeghpy...yxnhgedddddddbaaaadddkhef
(PID.TID 0000.0001) //      8 gnlmkmopvtlkklv..............yx.............................zrppmljjjgffmljjjgfffggeeddddddddefhhigghffeddffilloxy....zyxoihgggdddddddddgnlmkmop
(PID.TID 0000.0001) //      7 .................................................................xsrvshf.xsrvshfeeeeeeeeeeffgjmmnpvwvvwy++yyyyxxz......ywttqmigghggfflyz........
(PID.TID 0000.0001) //      6 ...............................................................yyyyyyupnyyyyyupnkihhggghvyyy+.........................+yyyyyyyyxxxyy............
(PID.TID 0000.0001) //      5 ................................................................xxyyxxyyxxyyxxyyyyyzz.................................++zz..zyxy................
(PID.TID 0000.0001) //      4 ................................................................................................................................................
(PID.TID 0000.0001) //      3 ................................................................................................................................................
(PID.TID 0000.0001) //      2 ................................................................................................................................................
(PID.TID 0000.0001) //      1 ................................................................................................................................................
(PID.TID 0000.0001) //      0 ................................................................................................................................................
(PID.TID 0000.0001) //     -1 ................................................................................................................................................
(PID.TID 0000.0001) //     -2 ................................................................................................................................................
(PID.TID 0000.0001) //     -3 ................................................................................................................................................
(PID.TID 0000.0001) // =======================================================
(PID.TID 0000.0001) // END OF FIELD                                          =
(PID.TID 0000.0001) // =======================================================
(PID.TID 0000.0001) 
(PID.TID 0000.0001) // =======================================================
(PID.TID 0000.0001) // Field Model Ro_surf (ini_masks_etc)
(PID.TID 0000.0001) // CMIN =          1.000000000000000E+32
(PID.TID 0000.0001) // CMAX =         -1.000000000000000E+32
(PID.TID 0000.0001) // CINT =          0.000000000000000E+00
(PID.TID 0000.0001) // SYMBOLS (CMIN->CMAX): -abcdefghijklmnopqrstuvwxyz+
(PID.TID 0000.0001) //                  0.0: .
(PID.TID 0000.0001) // RANGE I (Lo:Hi:Step):(    -3:   132:     1)
(PID.TID 0000.0001) // RANGE J (Lo:Hi:Step):(    68:    -3:    -1)
(PID.TID 0000.0001) // RANGE K (Lo:Hi:Step):(   1:   1:   1)
(PID.TID 0000.0001) // =======================================================
(PID.TID 0000.0001) // =======================================================
(PID.TID 0000.0001) // END OF FIELD                                          =
(PID.TID 0000.0001) // =======================================================
(PID.TID 0000.0001) 
(PID.TID 0000.0001) // =======================================================
(PID.TID 0000.0001) // Field hFacC at iteration          0
(PID.TID 0000.0001) // CMIN =          1.000000000000000E+00
(PID.TID 0000.0001) // CMAX =          1.000000000000000E+00
(PID.TID 0000.0001) // CINT =          0.000000000000000E+00
(PID.TID 0000.0001) // SYMBOLS (CMIN->CMAX): -abcdefghijklmnopqrstuvwxyz+
(PID.TID 0000.0001) //                  0.0: .
(PID.TID 0000.0001) // RANGE I (Lo:Hi:Step):(    -3:   132:     1)
(PID.TID 0000.0001) // RANGE J (Lo:Hi:Step):(    68:    -3:    -1)
(PID.TID 0000.0001) // RANGE K (Lo:Hi:Step):(   1:   1:   1)
(PID.TID 0000.0001) // =======================================================
(PID.TID 0000.0001) // =======================================================
(PID.TID 0000.0001) // END OF FIELD                                          =
(PID.TID 0000.0001) // =======================================================
(PID.TID 0000.0001) 
(PID.TID 0000.0001) // =======================================================
(PID.TID 0000.0001) // Field hFacW at iteration          0
(PID.TID 0000.0001) // CMIN =          1.000000000000000E+00
(PID.TID 0000.0001) // CMAX =          1.000000000000000E+00
(PID.TID 0000.0001) // CINT =          0.000000000000000E+00
(PID.TID 0000.0001) // SYMBOLS (CMIN->CMAX): -abcdefghijklmnopqrstuvwxyz+
(PID.TID 0000.0001) //                  0.0: .
(PID.TID 0000.0001) // RANGE I (Lo:Hi:Step):(    -3:   132:     1)
(PID.TID 0000.0001) // RANGE J (Lo:Hi:Step):(    68:    -3:    -1)
(PID.TID 0000.0001) // RANGE K (Lo:Hi:Step):(   1:   1:   1)
(PID.TID 0000.0001) // =======================================================
(PID.TID 0000.0001) // =======================================================
(PID.TID 0000.0001) // END OF FIELD                                          =
(PID.TID 0000.0001) // =======================================================
(PID.TID 0000.0001) 
(PID.TID 0000.0001) // =======================================================
(PID.TID 0000.0001) // Field hFacS at iteration          0
(PID.TID 0000.0001) // CMIN =          1.000000000000000E+00
(PID.TID 0000.0001) // CMAX =          1.000000000000000E+00
(PID.TID 0000.0001) // CINT =          0.000000000000000E+00
(PID.TID 0000.0001) // SYMBOLS (CMIN->CMAX): -abcdefghijklmnopqrstuvwxyz+
(PID.TID 0000.0001) //                  0.0: .
(PID.TID 0000.0001) // RANGE I (Lo:Hi:Step):(    -3:   132:     1)
(PID.TID 0000.0001) // RANGE J (Lo:Hi:Step):(    68:    -3:    -1)
(PID.TID 0000.0001) // RANGE K (Lo:Hi:Step):(   1:   1:   1)
(PID.TID 0000.0001) // =======================================================
(PID.TID 0000.0001) // =======================================================
(PID.TID 0000.0001) // END OF FIELD                                          =
(PID.TID 0000.0001) // =======================================================
(PID.TID 0000.0001) 
(PID.TID 0000.0001) 
(PID.TID 0000.0001) // =======================================================
(PID.TID 0000.0001) // Calendar configuration >>> START <<<
(PID.TID 0000.0001) // =======================================================
(PID.TID 0000.0001) 
(PID.TID 0000.0001) modelstart = /* Start time of the model integration [s] */
(PID.TID 0000.0001)                 0.000000000000000E+00
(PID.TID 0000.0001)     ;
(PID.TID 0000.0001) modelend  = /* End time of the model integration [s] */
(PID.TID 0000.0001)                 1.728000000000000E+05
(PID.TID 0000.0001)     ;
(PID.TID 0000.0001) modelStep = /* Time interval for a model forward step [s] */
(PID.TID 0000.0001)                 4.320000000000000E+04
(PID.TID 0000.0001)     ;
(PID.TID 0000.0001) usingGregorianCalendar= /* Calendar Type: Gregorian Calendar */
(PID.TID 0000.0001)                   T
(PID.TID 0000.0001)     ;
(PID.TID 0000.0001) usingJulianCalendar = /* Calendar Type: Julian Calendar */
(PID.TID 0000.0001)                   F
(PID.TID 0000.0001)     ;
(PID.TID 0000.0001) usingNoLeapYearCal  = /* Calendar Type: without Leap Year */
(PID.TID 0000.0001)                   F
(PID.TID 0000.0001)     ;
(PID.TID 0000.0001) usingModelCalendar  = /* Calendar Type: Model Calendar */
(PID.TID 0000.0001)                   F
(PID.TID 0000.0001)     ;
(PID.TID 0000.0001) modelStartDate YYYYMMDD = /* Model start date YYYY-MM-DD */
(PID.TID 0000.0001)                19920101
(PID.TID 0000.0001)     ;
(PID.TID 0000.0001)   modelStartDate HHMMSS = /* Model start date HH-MM-SS  */
(PID.TID 0000.0001)                       0
(PID.TID 0000.0001)     ;
(PID.TID 0000.0001) modelEndDate   YYYYMMDD = /* Model end date YYYY-MM-DD */
(PID.TID 0000.0001)                19920103
(PID.TID 0000.0001)     ;
(PID.TID 0000.0001)   modelEndDate   HHMMSS = /* Model end date HH-MM-SS  */
(PID.TID 0000.0001)                       0
(PID.TID 0000.0001)     ;
(PID.TID 0000.0001) intyears = /* Number of calendar years affected by the integration */
(PID.TID 0000.0001)                       1
(PID.TID 0000.0001)     ;
(PID.TID 0000.0001) intmonths= /* Number of calendar months affected by the integration */
(PID.TID 0000.0001)                       1
(PID.TID 0000.0001)     ;
(PID.TID 0000.0001) intdays = /* Number of calendar days affected by the integration */
(PID.TID 0000.0001)                       2
(PID.TID 0000.0001)     ;
(PID.TID 0000.0001) modelIter0 = /* Base timestep number  */
(PID.TID 0000.0001)                       0
(PID.TID 0000.0001)     ;
(PID.TID 0000.0001) modelIterEnd = /* Final timestep number  */
(PID.TID 0000.0001)                       4
(PID.TID 0000.0001)     ;
(PID.TID 0000.0001) modelIntSteps= /* Number of model timesteps  */
(PID.TID 0000.0001)                       4
(PID.TID 0000.0001)     ;
(PID.TID 0000.0001) 
(PID.TID 0000.0001) // =======================================================
(PID.TID 0000.0001) // Calendar configuration  >>> END <<<
(PID.TID 0000.0001) // =======================================================
(PID.TID 0000.0001) 
(PID.TID 0000.0001) GAD_INIT_FIXED: GAD_OlMinSize=  1  0  1
(PID.TID 0000.0001) 
(PID.TID 0000.0001) // ===================================
(PID.TID 0000.0001) // GAD parameters :
(PID.TID 0000.0001) // ===================================
(PID.TID 0000.0001) tempAdvScheme =   /* Temp. Horiz.Advection scheme selector */
(PID.TID 0000.0001)                       2
(PID.TID 0000.0001)     ;
(PID.TID 0000.0001) tempVertAdvScheme =   /* Temp. Vert. Advection scheme selector */
(PID.TID 0000.0001)                       2
(PID.TID 0000.0001)     ;
(PID.TID 0000.0001) tempMultiDimAdvec =   /* use Muti-Dim Advec method for Temp */
(PID.TID 0000.0001)                   F
(PID.TID 0000.0001)     ;
(PID.TID 0000.0001) tempSOM_Advection = /* use 2nd Order Moment Advection for Temp */
(PID.TID 0000.0001)                   F
(PID.TID 0000.0001)     ;
(PID.TID 0000.0001) AdamsBashforthGt = /* apply Adams-Bashforth extrapolation on Gt */
(PID.TID 0000.0001)                   T
(PID.TID 0000.0001)     ;
(PID.TID 0000.0001) AdamsBashforth_T = /* apply Adams-Bashforth extrapolation on Temp */
(PID.TID 0000.0001)                   F
(PID.TID 0000.0001)     ;
(PID.TID 0000.0001) saltAdvScheme =   /* Salt. Horiz.advection scheme selector */
(PID.TID 0000.0001)                       2
(PID.TID 0000.0001)     ;
(PID.TID 0000.0001) saltVertAdvScheme =   /* Salt. Vert. Advection scheme selector */
(PID.TID 0000.0001)                       2
(PID.TID 0000.0001)     ;
(PID.TID 0000.0001) saltMultiDimAdvec =   /* use Muti-Dim Advec method for Salt */
(PID.TID 0000.0001)                   F
(PID.TID 0000.0001)     ;
(PID.TID 0000.0001) saltSOM_Advection = /* use 2nd Order Moment Advection for Salt */
(PID.TID 0000.0001)                   F
(PID.TID 0000.0001)     ;
(PID.TID 0000.0001) AdamsBashforthGs = /* apply Adams-Bashforth extrapolation on Gs */
(PID.TID 0000.0001)                   T
(PID.TID 0000.0001)     ;
(PID.TID 0000.0001) AdamsBashforth_S = /* apply Adams-Bashforth extrapolation on Salt */
(PID.TID 0000.0001)                   F
(PID.TID 0000.0001)     ;
(PID.TID 0000.0001) // ===================================
(PID.TID 0000.0001) 
(PID.TID 0000.0001) // =======================================================
(PID.TID 0000.0001) // External forcing (EXF) configuration >>> START <<<
(PID.TID 0000.0001) // =======================================================
(PID.TID 0000.0001) 
(PID.TID 0000.0001)  EXF general parameters:
(PID.TID 0000.0001) 
(PID.TID 0000.0001) exf_iprec = /* exf file precision */
(PID.TID 0000.0001)                      32
(PID.TID 0000.0001)     ;
(PID.TID 0000.0001) useExfYearlyFields = /* add extension _YEAR to input file names */
(PID.TID 0000.0001)                   F
(PID.TID 0000.0001)     ;
(PID.TID 0000.0001) twoDigitYear = /* use 2-digit year extension */
(PID.TID 0000.0001)                   F
(PID.TID 0000.0001)     ;
(PID.TID 0000.0001) useExfCheckRange = /* check for fields range */
(PID.TID 0000.0001)                   T
(PID.TID 0000.0001)     ;
(PID.TID 0000.0001) exf_output_interp = /* output directly interpolation result */
(PID.TID 0000.0001)                   F
(PID.TID 0000.0001)     ;
(PID.TID 0000.0001) exf_debugLev = /* select EXF-debug printing level */
(PID.TID 0000.0001)                       2
(PID.TID 0000.0001)     ;
(PID.TID 0000.0001) exf_monFreq  = /* EXF monitor frequency [ s ] */
(PID.TID 0000.0001)                 1.000000000000000E+00
(PID.TID 0000.0001)     ;
(PID.TID 0000.0001) repeatPeriod = /* period for cycling forcing dataset [ s ] */
(PID.TID 0000.0001)                 0.000000000000000E+00
(PID.TID 0000.0001)     ;
(PID.TID 0000.0001) climTempFreeze= /* Minimum climatological temperature [deg.C] */
(PID.TID 0000.0001)                -1.900000000000000E+00
(PID.TID 0000.0001)     ;
(PID.TID 0000.0001) windStressMax = /* Maximum absolute windstress [ Pa ] */
(PID.TID 0000.0001)                 2.000000000000000E+00
(PID.TID 0000.0001)     ;
(PID.TID 0000.0001) stressIsOnCgrid = /* set u,v_stress on Arakawa C-grid */
(PID.TID 0000.0001)                   F
(PID.TID 0000.0001)     ;
(PID.TID 0000.0001) rotateStressOnAgrid = /* rotate u,v_stress on Arakawa A-grid */
(PID.TID 0000.0001)                   F
(PID.TID 0000.0001)     ;
(PID.TID 0000.0001) cen2kel = /* conversion of deg. Centigrade to Kelvin [K] */
(PID.TID 0000.0001)                 2.731500000000000E+02
(PID.TID 0000.0001)     ;
(PID.TID 0000.0001) gravity_mks= /* gravitational acceleration [m/s^2] */
(PID.TID 0000.0001)                 9.810000000000000E+00
(PID.TID 0000.0001)     ;
(PID.TID 0000.0001) atmrho =  /* mean atmospheric density [kg/m^3] */
(PID.TID 0000.0001)                 1.200000000000000E+00
(PID.TID 0000.0001)     ;
(PID.TID 0000.0001) atmcp =  /* mean atmospheric specific heat [J/kg/K] */
(PID.TID 0000.0001)                 1.005000000000000E+03
(PID.TID 0000.0001)     ;
(PID.TID 0000.0001) flamb =  /* latent heat of evaporation [J/kg] */
(PID.TID 0000.0001)                 2.500000000000000E+06
(PID.TID 0000.0001)     ;
(PID.TID 0000.0001) flami =  /* latent heat of pure-ice melting [J/kg] */
(PID.TID 0000.0001)                 3.340000000000000E+05
(PID.TID 0000.0001)     ;
(PID.TID 0000.0001) cvapor_fac = /* const. for Saturation calculation [?] */
(PID.TID 0000.0001)                 6.403800000000000E+05
(PID.TID 0000.0001)     ;
(PID.TID 0000.0001) cvapor_exp = /* const. for Saturation calculation [?] */
(PID.TID 0000.0001)                 5.107400000000000E+03
(PID.TID 0000.0001)     ;
(PID.TID 0000.0001) cvapor_fac_ice= /* const. for Saturation calculation [?] */
(PID.TID 0000.0001)                 1.163780000000000E+07
(PID.TID 0000.0001)     ;
(PID.TID 0000.0001) cvapor_exp_ice= /* const. for Saturation calculation [?] */
(PID.TID 0000.0001)                 5.897800000000000E+03
(PID.TID 0000.0001)     ;
(PID.TID 0000.0001) humid_fac = /* humidity coef. in virtual temp. [(kg/kg)^-1] */
(PID.TID 0000.0001)                 6.060000000000000E-01
(PID.TID 0000.0001)     ;
(PID.TID 0000.0001) gamma_blk = /* adiabatic lapse rate [?] */
(PID.TID 0000.0001)                 1.000000000000000E-02
(PID.TID 0000.0001)     ;
(PID.TID 0000.0001) saltsat = /* reduction of Qsat over salty water [-] */
(PID.TID 0000.0001)                 9.800000000000000E-01
(PID.TID 0000.0001)     ;
(PID.TID 0000.0001) noNegativeEvap = /* prevent negative Evaporation */
(PID.TID 0000.0001)                   F
(PID.TID 0000.0001)     ;
(PID.TID 0000.0001) sstExtrapol = /* extrapolation coeff from lev. 1 & 2 to surf [-] */
(PID.TID 0000.0001)                 0.000000000000000E+00
(PID.TID 0000.0001)     ;
(PID.TID 0000.0001) cDrag_1 = /* coef used in drag calculation [?] */
(PID.TID 0000.0001)                 2.700000000000000E-03
(PID.TID 0000.0001)     ;
(PID.TID 0000.0001) cDrag_2 = /* coef used in drag calculation [?] */
(PID.TID 0000.0001)                 1.420000000000000E-04
(PID.TID 0000.0001)     ;
(PID.TID 0000.0001) cDrag_3 = /* coef used in drag calculation [?] */
(PID.TID 0000.0001)                 7.640000000000000E-05
(PID.TID 0000.0001)     ;
(PID.TID 0000.0001) cStanton_1 = /* coef used in Stanton number calculation [?] */
(PID.TID 0000.0001)                 3.270000000000000E-02
(PID.TID 0000.0001)     ;
(PID.TID 0000.0001) cStanton_2 = /* coef used in Stanton number calculation [?] */
(PID.TID 0000.0001)                 1.800000000000000E-02
(PID.TID 0000.0001)     ;
(PID.TID 0000.0001) cDalton = /* coef used in Dalton number calculation [?] */
(PID.TID 0000.0001)                 3.460000000000000E-02
(PID.TID 0000.0001)     ;
(PID.TID 0000.0001) exf_scal_BulkCdn= /* Drag coefficient scaling factor [-] */
(PID.TID 0000.0001)                 1.000000000000000E+00
(PID.TID 0000.0001)     ;
(PID.TID 0000.0001) zolmin = /* minimum stability parameter [?] */
(PID.TID 0000.0001)                -1.000000000000000E+02
(PID.TID 0000.0001)     ;
(PID.TID 0000.0001) psim_fac = /* coef used in turbulent fluxes calculation [-] */
(PID.TID 0000.0001)                 5.000000000000000E+00
(PID.TID 0000.0001)     ;
(PID.TID 0000.0001) zref =  /* reference height [ m ] */
(PID.TID 0000.0001)                 1.000000000000000E+01
(PID.TID 0000.0001)     ;
(PID.TID 0000.0001) hu =  /* height of mean wind [ m ] */
(PID.TID 0000.0001)                 1.000000000000000E+01
(PID.TID 0000.0001)     ;
(PID.TID 0000.0001) ht =  /* height of mean temperature [ m ] */
(PID.TID 0000.0001)                 2.000000000000000E+00
(PID.TID 0000.0001)     ;
(PID.TID 0000.0001) hq =  /* height of mean spec.humidity [ m ] */
(PID.TID 0000.0001)                 2.000000000000000E+00
(PID.TID 0000.0001)     ;
(PID.TID 0000.0001) uMin = /* minimum wind speed [m/s] */
(PID.TID 0000.0001)                 5.000000000000000E-01
(PID.TID 0000.0001)     ;
(PID.TID 0000.0001) useStabilityFct_overIce= /* transfert Coeffs over sea-ice depend on stability */
(PID.TID 0000.0001)                   F
(PID.TID 0000.0001)     ;
(PID.TID 0000.0001) exf_iceCd = /* drag coefficient over sea-ice (fixed) [-] */
(PID.TID 0000.0001)                 1.630000000000000E-03
(PID.TID 0000.0001)     ;
(PID.TID 0000.0001) exf_iceCe = /* transfert coeff. over sea-ice, for Evap (fixed) [-] */
(PID.TID 0000.0001)                 1.630000000000000E-03
(PID.TID 0000.0001)     ;
(PID.TID 0000.0001) exf_iceCh = /* transfert coeff. over sea-ice, Sens.Heat.(fixed)[-] */
(PID.TID 0000.0001)                 1.630000000000000E-03
(PID.TID 0000.0001)     ;
(PID.TID 0000.0001) exf_albedo =  /* Sea-water albedo [-] */
(PID.TID 0000.0001)                 1.000000000000000E-01
(PID.TID 0000.0001)     ;
(PID.TID 0000.0001) useExfZenAlbedo = /* Sea-water albedo varies with zenith angle */
(PID.TID 0000.0001)                   F
(PID.TID 0000.0001)     ;
(PID.TID 0000.0001) select_ZenAlbedo = /* Sea-water albedo computation method */
(PID.TID 0000.0001)                       0
(PID.TID 0000.0001)     ;
(PID.TID 0000.0001) useExfZenIncoming = /* compute incoming solar radiation */
(PID.TID 0000.0001)                   F
(PID.TID 0000.0001)     ;
(PID.TID 0000.0001) ocean_emissivity = /* longwave ocean-surface emissivity [-] */
(PID.TID 0000.0001)                 9.700176366843034E-01
(PID.TID 0000.0001)     ;
(PID.TID 0000.0001) ice_emissivity = /* longwave seaice emissivity [-] */
(PID.TID 0000.0001)                 9.500000000000000E-01
(PID.TID 0000.0001)     ;
(PID.TID 0000.0001) snow_emissivity = /* longwave snow  emissivity [-] */
(PID.TID 0000.0001)                 9.500000000000000E-01
(PID.TID 0000.0001)     ;
(PID.TID 0000.0001) 
(PID.TID 0000.0001)  EXF main CPP flags:
(PID.TID 0000.0001) 
(PID.TID 0000.0001) // USE_EXF_INTERPOLATION:              defined
(PID.TID 0000.0001) // ALLOW_ATM_TEMP:                 NOT defined
(PID.TID 0000.0001) // ALLOW_ATM_WIND (useAtmWind):    NOT defined
(PID.TID 0000.0001) // ALLOW_DOWNWARD_RADIATION:       NOT defined
(PID.TID 0000.0001) // ALLOW_BULKFORMULAE:             NOT defined
(PID.TID 0000.0001) 
(PID.TID 0000.0001)    Zonal wind stress forcing period is                 -12.
(PID.TID 0000.0001)    Zonal wind stress forcing is read from file:
(PID.TID 0000.0001)    >> tren_taux.bin <<
(PID.TID 0000.0001)    interpolate "ustress" (method= 12 ):
(PID.TID 0000.0001)    lon0=   0.00000, nlon=   128, lon_inc= 2.8125000
(PID.TID 0000.0001)    lat0= -88.59375, nlat=    64, lat_inc= 2.8125000
(PID.TID 0000.0001) 
(PID.TID 0000.0001)    Meridional wind stress forcing period is            -12.
(PID.TID 0000.0001)    Meridional wind stress forcing is read from file:
(PID.TID 0000.0001)    >> tren_tauy.bin <<
(PID.TID 0000.0001)    interpolate "vstress" (method= 22 ):
(PID.TID 0000.0001)    lon0=   1.40625, nlon=   128, lon_inc= 2.8125000
(PID.TID 0000.0001)    lat0= -90.00000, nlat=    64, lat_inc= 2.8125000
(PID.TID 0000.0001)     Interp. U & V comp. together: uvInterp_stress =    F
(PID.TID 0000.0001) 
(PID.TID 0000.0001)    Heat flux forcing period is                         -12.
(PID.TID 0000.0001)    Heat flux forcing is read from file:
(PID.TID 0000.0001)    >> shi_qnet.bin <<
(PID.TID 0000.0001)    interpolate "hflux" (method=  1 ):
(PID.TID 0000.0001)    lon0=   1.40625, nlon=   128, lon_inc= 2.8125000
(PID.TID 0000.0001)    lat0= -88.59375, nlat=    64, lat_inc= 2.8125000
(PID.TID 0000.0001) 
(PID.TID 0000.0001)    Fresh-Water flux forcing period is                  -12.
(PID.TID 0000.0001)    Fresh-Water flux forcing is read from file:
(PID.TID 0000.0001)    >> shi_empmr_year.bin <<
(PID.TID 0000.0001)    interpolate "sflux" (method=  1 ):
(PID.TID 0000.0001)    lon0=   1.40625, nlon=   128, lon_inc= 2.8125000
(PID.TID 0000.0001)    lat0= -88.59375, nlat=    64, lat_inc= 2.8125000
(PID.TID 0000.0001) 
(PID.TID 0000.0001) // EXF_READ_EVAP:                  NOT defined
(PID.TID 0000.0001) // ALLOW_RUNOFF:                       defined
(PID.TID 0000.0001) // ALLOW_RUNOFTEMP:                NOT defined
(PID.TID 0000.0001) // ALLOW_SALTFLX:                  NOT defined
(PID.TID 0000.0001) 
(PID.TID 0000.0001) // =======================================================
(PID.TID 0000.0001) // External forcing (EXF) climatology configuration :
(PID.TID 0000.0001) // =======================================================
(PID.TID 0000.0001) 
(PID.TID 0000.0001) // ALLOW_CLIMSST_RELAXATION:           defined
(PID.TID 0000.0001)    Climatological SST period is                        -12.
(PID.TID 0000.0001)    Climatological SST is read from file:
(PID.TID 0000.0001)    >> lev_monthly_temp.bin <<
(PID.TID 0000.0001)    interpolate "climsst" (method=  2 ):
(PID.TID 0000.0001)    lon0=   1.40625, nlon=   128, lon_inc= 2.8125000
(PID.TID 0000.0001)    lat0= -88.59375, nlat=    64, lat_inc= 2.8125000
(PID.TID 0000.0001) 
(PID.TID 0000.0001) // ALLOW_CLIMSSS_RELAXATION:           defined
(PID.TID 0000.0001)    Climatological SSS period is                        -12.
(PID.TID 0000.0001)    Climatological SSS is read from file:
(PID.TID 0000.0001)    >> lev_monthly_salt.bin <<
(PID.TID 0000.0001)    interpolate "climsss" (method=  2 ):
(PID.TID 0000.0001)    lon0=   1.40625, nlon=   128, lon_inc= 2.8125000
(PID.TID 0000.0001)    lat0= -88.59375, nlat=    64, lat_inc= 2.8125000
(PID.TID 0000.0001) 
(PID.TID 0000.0001) // =======================================================
(PID.TID 0000.0001) // External forcing (EXF) configuration  >>> END <<<
(PID.TID 0000.0001) // =======================================================
(PID.TID 0000.0001) 
(PID.TID 0000.0001) PTRACERS_INIT_FIXED: updated GAD_OlMinSize=  2  0  1
 QQ load dic parameters, initial fixed
(PID.TID 0000.0001) 
(PID.TID 0000.0001) // ===================================
(PID.TID 0000.0001) //  DIC_INIT_FIXED parameters :
(PID.TID 0000.0001) nlev = /* Number of level over which Bio act is computed */
(PID.TID 0000.0001)                       6
(PID.TID 0000.0001)     ;
(PID.TID 0000.0001) ------------------------------------------------------------
(PID.TID 0000.0001) DIAGNOSTICS_SET_LEVELS: done
(PID.TID 0000.0001)  Total Nb of available Diagnostics: ndiagt=   317
(PID.TID 0000.0001)  write list of available Diagnostics to file: available_diagnostics.log
(PID.TID 0000.0001) SETDIAG: Allocate  1 x  1 Levels for Diagnostic #    23 ETAN
(PID.TID 0000.0001) SETDIAG: Allocate  1 x  1 Levels for Diagnostic #    24 ETANSQ
(PID.TID 0000.0001) SETDIAG: Allocate  1 x  1 Levels for Diagnostic #    25 DETADT2
(PID.TID 0000.0001) SETDIAG: Allocate  1 x  1 Levels for Diagnostic #    73 PHIBOT
(PID.TID 0000.0001) SETDIAG: Allocate  1 x  1 Levels for Diagnostic #    74 PHIBOTSQ
(PID.TID 0000.0001) SETDIAG: Allocate  1 x  1 Levels for Diagnostic #   308 DICTFLX
(PID.TID 0000.0001) SETDIAG: Allocate  1 x  1 Levels for Diagnostic #   309 DICOFLX
(PID.TID 0000.0001) SETDIAG: Allocate  1 x  1 Levels for Diagnostic #   310 DICCFLX
(PID.TID 0000.0001) SETDIAG: Allocate  1 x  1 Levels for Diagnostic #   311 DICPCO2
(PID.TID 0000.0001) SETDIAG: Allocate  1 x  1 Levels for Diagnostic #   312 DICPHAV
(PID.TID 0000.0001)   space allocated for all diagnostics:      10 levels
(PID.TID 0000.0001) DIAGNOSTICS_SET_POINTERS: done
(PID.TID 0000.0001) ------------------------------------------------------------
(PID.TID 0000.0001) DIAGSTATS_SET_REGIONS: define   0 regions:
(PID.TID 0000.0001) ------------------------------------------------------------
(PID.TID 0000.0001)   space allocated for all stats-diags:       0 levels
(PID.TID 0000.0001) DIAGSTATS_SET_POINTERS: done
(PID.TID 0000.0001) ------------------------------------------------------------
(PID.TID 0000.0001) %MON fCori_max                    =   1.4579854531444E-04
(PID.TID 0000.0001) %MON fCori_min                    =  -1.4579854531444E-04
(PID.TID 0000.0001) %MON fCori_mean                   =   2.3039296165317E-19
(PID.TID 0000.0001) %MON fCori_sd                     =   1.0312619976228E-04
(PID.TID 0000.0001) %MON fCoriG_max                   =   1.4566679669714E-04
(PID.TID 0000.0001) %MON fCoriG_min                   =  -1.4584247033981E-04
(PID.TID 0000.0001) %MON fCoriG_mean                  =  -2.2787885990593E-06
(PID.TID 0000.0001) %MON fCoriG_sd                    =   1.0310101939326E-04
(PID.TID 0000.0001) %MON fCoriCos_max                 =   1.4579854531444E-04
(PID.TID 0000.0001) %MON fCoriCos_min                 =   3.5791533929553E-06
(PID.TID 0000.0001) %MON fCoriCos_mean                =   9.2855522572229E-05
(PID.TID 0000.0001) %MON fCoriCos_sd                  =   4.4864964117307E-05
(PID.TID 0000.0001) INI_CG2D: CG2D normalisation factor =  7.0372759228205380E-05
(PID.TID 0000.0001) 
(PID.TID 0000.0001) // =======================================================
(PID.TID 0000.0001) // Model configuration
(PID.TID 0000.0001) // =======================================================
(PID.TID 0000.0001) //
(PID.TID 0000.0001) // "Physical" paramters ( PARM01 in namelist )
(PID.TID 0000.0001) //
(PID.TID 0000.0001) buoyancyRelation = /* Type of relation to get Buoyancy */
(PID.TID 0000.0001)               'OCEANIC'
(PID.TID 0000.0001)     ;
(PID.TID 0000.0001) fluidIsAir   =  /* fluid major constituent is Air */
(PID.TID 0000.0001)                   F
(PID.TID 0000.0001)     ;
(PID.TID 0000.0001) fluidIsWater =  /* fluid major constituent is Water */
(PID.TID 0000.0001)                   T
(PID.TID 0000.0001)     ;
(PID.TID 0000.0001) usingPCoords =  /* use p (or p*) vertical coordinate */
(PID.TID 0000.0001)                   F
(PID.TID 0000.0001)     ;
(PID.TID 0000.0001) usingZCoords =  /* use z (or z*) vertical coordinate */
(PID.TID 0000.0001)                   T
(PID.TID 0000.0001)     ;
(PID.TID 0000.0001) tRef =   /* Reference temperature profile ( oC or K ) */
(PID.TID 0000.0001)    15 @  2.000000000000000E+01              /* K =  1: 15 */
(PID.TID 0000.0001)     ;
(PID.TID 0000.0001) sRef =   /* Reference salinity profile ( psu ) */
(PID.TID 0000.0001)    15 @  3.500000000000000E+01              /* K =  1: 15 */
(PID.TID 0000.0001)     ;
(PID.TID 0000.0001) useStrainTensionVisc= /* Use StrainTension Form of Viscous Operator */
(PID.TID 0000.0001)                   F
(PID.TID 0000.0001)     ;
(PID.TID 0000.0001) useVariableVisc = /* Use variable horizontal viscosity */
(PID.TID 0000.0001)                   F
(PID.TID 0000.0001)     ;
(PID.TID 0000.0001) useHarmonicVisc = /* Use harmonic horizontal viscosity */
(PID.TID 0000.0001)                   T
(PID.TID 0000.0001)     ;
(PID.TID 0000.0001) useBiharmonicVisc= /* Use biharmonic horiz.  viscosity */
(PID.TID 0000.0001)                   F
(PID.TID 0000.0001)     ;
(PID.TID 0000.0001) useSmag3D = /* Use isotropic 3-D Smagorinsky viscosity */
(PID.TID 0000.0001)                   F
(PID.TID 0000.0001)     ;
(PID.TID 0000.0001) viscAh  =   /* Lateral harmonic viscosity ( m^2/s ) */
(PID.TID 0000.0001)                 2.000000000000000E+05
(PID.TID 0000.0001)     ;
(PID.TID 0000.0001) viscA4  =   /* Lateral biharmonic viscosity ( m^4/s ) */
(PID.TID 0000.0001)                 0.000000000000000E+00
(PID.TID 0000.0001)     ;
(PID.TID 0000.0001) no_slip_sides =  /* Viscous BCs: No-slip sides */
(PID.TID 0000.0001)                   T
(PID.TID 0000.0001)     ;
(PID.TID 0000.0001) sideDragFactor = /* side-drag scaling factor (non-dim) */
(PID.TID 0000.0001)                 2.000000000000000E+00
(PID.TID 0000.0001)     ;
(PID.TID 0000.0001) viscArNr = /* vertical profile of vertical viscosity ( m^2/s )*/
(PID.TID 0000.0001)    15 @  1.000000000000000E-03              /* K =  1: 15 */
(PID.TID 0000.0001)     ;
(PID.TID 0000.0001) no_slip_bottom =  /* Viscous BCs: No-slip bottom */
(PID.TID 0000.0001)                   T
(PID.TID 0000.0001)     ;
(PID.TID 0000.0001) bottomVisc_pCell = /* Partial-cell in bottom Visc. BC */
(PID.TID 0000.0001)                   F
(PID.TID 0000.0001)     ;
(PID.TID 0000.0001) bottomDragLinear = /* linear bottom-drag coefficient ( m/s ) */
(PID.TID 0000.0001)                 0.000000000000000E+00
(PID.TID 0000.0001)     ;
(PID.TID 0000.0001) bottomDragQuadratic = /* quadratic bottom-drag coefficient (-) */
(PID.TID 0000.0001)                 0.000000000000000E+00
(PID.TID 0000.0001)     ;
(PID.TID 0000.0001) selectBotDragQuadr = /* select quadratic bottom drag options */
(PID.TID 0000.0001)                      -1
(PID.TID 0000.0001)     ;
(PID.TID 0000.0001) diffKhT =   /* Laplacian diffusion of heat laterally ( m^2/s ) */
(PID.TID 0000.0001)                 0.000000000000000E+00
(PID.TID 0000.0001)     ;
(PID.TID 0000.0001) diffK4T =   /* Biharmonic diffusion of heat laterally ( m^4/s ) */
(PID.TID 0000.0001)                 0.000000000000000E+00
(PID.TID 0000.0001)     ;
(PID.TID 0000.0001) diffKhS =   /* Laplacian diffusion of salt laterally ( m^2/s ) */
(PID.TID 0000.0001)                 0.000000000000000E+00
(PID.TID 0000.0001)     ;
(PID.TID 0000.0001) diffK4S =   /* Biharmonic diffusion of salt laterally ( m^4/s ) */
(PID.TID 0000.0001)                 0.000000000000000E+00
(PID.TID 0000.0001)     ;
(PID.TID 0000.0001) diffKrNrT = /* vertical profile of vertical diffusion of Temp ( m^2/s )*/
(PID.TID 0000.0001)    15 @  0.000000000000000E+00              /* K =  1: 15 */
(PID.TID 0000.0001)     ;
(PID.TID 0000.0001) diffKrNrS = /* vertical profile of vertical diffusion of Salt ( m^2/s )*/
(PID.TID 0000.0001)    15 @  0.000000000000000E+00              /* K =  1: 15 */
(PID.TID 0000.0001)     ;
(PID.TID 0000.0001) diffKrBL79surf = /* Surface diffusion for Bryan and Lewis 79 ( m^2/s ) */
(PID.TID 0000.0001)                 3.000000000000000E-05
(PID.TID 0000.0001)     ;
(PID.TID 0000.0001) diffKrBL79deep = /* Deep diffusion for Bryan and Lewis 1979 ( m^2/s ) */
(PID.TID 0000.0001)                 1.300000000000000E-04
(PID.TID 0000.0001)     ;
(PID.TID 0000.0001) diffKrBL79scl = /* Depth scale for Bryan and Lewis 1979 ( m ) */
(PID.TID 0000.0001)                 1.500000000000000E+02
(PID.TID 0000.0001)     ;
(PID.TID 0000.0001) diffKrBL79Ho = /* Turning depth for Bryan and Lewis 1979 ( m ) */
(PID.TID 0000.0001)                -2.000000000000000E+03
(PID.TID 0000.0001)     ;
(PID.TID 0000.0001) ivdc_kappa = /* Implicit Vertical Diffusivity for Convection ( m^2/s) */
(PID.TID 0000.0001)                 1.000000000000000E+02
(PID.TID 0000.0001)     ;
(PID.TID 0000.0001) hMixCriteria=  /* Criteria for mixed-layer diagnostic */
(PID.TID 0000.0001)                -8.000000000000000E-01
(PID.TID 0000.0001)     ;
(PID.TID 0000.0001) dRhoSmall =  /* Parameter for mixed-layer diagnostic */
(PID.TID 0000.0001)                 1.000000000000000E-06
(PID.TID 0000.0001)     ;
(PID.TID 0000.0001) hMixSmooth=  /* Smoothing parameter for mixed-layer diagnostic */
(PID.TID 0000.0001)                 0.000000000000000E+00
(PID.TID 0000.0001)     ;
(PID.TID 0000.0001) eosType =  /* Type of Equation of State */
(PID.TID 0000.0001)               'JMD95Z'
(PID.TID 0000.0001)     ;
(PID.TID 0000.0001) selectP_inEOS_Zc = /* select pressure to use in EOS (0,1,2,3) */
(PID.TID 0000.0001)                       0
(PID.TID 0000.0001)     0= -g*rhoConst*z ; 1= pRef (from tRef,sRef); 2= Hyd P ; 3= Hyd+NH P
(PID.TID 0000.0001)     ;
(PID.TID 0000.0001) HeatCapacity_Cp =  /* Specific heat capacity ( J/kg/K ) */
(PID.TID 0000.0001)                 3.994000000000000E+03
(PID.TID 0000.0001)     ;
(PID.TID 0000.0001) celsius2K = /* 0 degree Celsius converted to Kelvin ( K ) */
(PID.TID 0000.0001)                 2.731500000000000E+02
(PID.TID 0000.0001)     ;
(PID.TID 0000.0001) rhoConst  = /* Reference density (Boussinesq)  ( kg/m^3 ) */
(PID.TID 0000.0001)                 1.035000000000000E+03
(PID.TID 0000.0001)     ;
(PID.TID 0000.0001) rhoFacC = /* normalized Reference density @ cell-Center (-) */
(PID.TID 0000.0001)    15 @  1.000000000000000E+00              /* K =  1: 15 */
(PID.TID 0000.0001)     ;
(PID.TID 0000.0001) rhoFacF = /* normalized Reference density @ W-Interface (-) */
(PID.TID 0000.0001)    16 @  1.000000000000000E+00              /* K =  1: 16 */
(PID.TID 0000.0001)     ;
(PID.TID 0000.0001) rhoConstFresh = /* Fresh-water reference density ( kg/m^3 ) */
(PID.TID 0000.0001)                 1.000000000000000E+03
(PID.TID 0000.0001)     ;
(PID.TID 0000.0001) gravity =   /* Gravitational acceleration ( m/s^2 ) */
(PID.TID 0000.0001)                 9.810000000000000E+00
(PID.TID 0000.0001)     ;
(PID.TID 0000.0001) gBaro =   /* Barotropic gravity ( m/s^2 ) */
(PID.TID 0000.0001)                 9.810000000000000E+00
(PID.TID 0000.0001)     ;
(PID.TID 0000.0001) gravFacC = /* gravity factor (vs surf.) @ cell-Center (-) */
(PID.TID 0000.0001)    15 @  1.000000000000000E+00              /* K =  1: 15 */
(PID.TID 0000.0001)     ;
(PID.TID 0000.0001) gravFacF = /* gravity factor (vs surf.) @ W-Interface (-) */
(PID.TID 0000.0001)    16 @  1.000000000000000E+00              /* K =  1: 16 */
(PID.TID 0000.0001)     ;
(PID.TID 0000.0001) rotationPeriod =   /* Rotation Period ( s ) */
(PID.TID 0000.0001)                 8.616400000000000E+04
(PID.TID 0000.0001)     ;
(PID.TID 0000.0001) omega =   /* Angular velocity ( rad/s ) */
(PID.TID 0000.0001)                 7.292123516990375E-05
(PID.TID 0000.0001)     ;
(PID.TID 0000.0001) f0 =   /* Reference coriolis parameter ( 1/s ) */
(PID.TID 0000.0001)                 1.000000000000000E-04
(PID.TID 0000.0001)     ;
(PID.TID 0000.0001) beta =   /* Beta ( 1/(m.s) ) */
(PID.TID 0000.0001)                 9.999999999999999E-12
(PID.TID 0000.0001)     ;
(PID.TID 0000.0001) fPrime =   /* Second coriolis parameter ( 1/s ) */
(PID.TID 0000.0001)                 0.000000000000000E+00
(PID.TID 0000.0001)     ;
(PID.TID 0000.0001) rigidLid =   /* Rigid lid on/off flag */
(PID.TID 0000.0001)                   F
(PID.TID 0000.0001)     ;
(PID.TID 0000.0001) implicitFreeSurface =   /* Implicit free surface on/off flag */
(PID.TID 0000.0001)                   T
(PID.TID 0000.0001)     ;
(PID.TID 0000.0001) freeSurfFac =   /* Implicit free surface factor */
(PID.TID 0000.0001)                 1.000000000000000E+00
(PID.TID 0000.0001)     ;
(PID.TID 0000.0001) implicSurfPress =  /* Surface Pressure implicit factor (0-1)*/
(PID.TID 0000.0001)                 1.000000000000000E+00
(PID.TID 0000.0001)     ;
(PID.TID 0000.0001) implicDiv2DFlow =  /* Barot. Flow Div. implicit factor (0-1)*/
(PID.TID 0000.0001)                 1.000000000000000E+00
(PID.TID 0000.0001)     ;
(PID.TID 0000.0001) uniformLin_PhiSurf = /* use uniform Bo_surf on/off flag*/
(PID.TID 0000.0001)                   T
(PID.TID 0000.0001)     ;
(PID.TID 0000.0001) uniformFreeSurfLev = /* free-surface level-index is uniform */
(PID.TID 0000.0001)                   T
(PID.TID 0000.0001)     ;
(PID.TID 0000.0001) hFacMin =   /* minimum partial cell factor (hFac) */
(PID.TID 0000.0001)                 1.000000000000000E-01
(PID.TID 0000.0001)     ;
(PID.TID 0000.0001) hFacMinDr = /* minimum partial cell thickness ( m) */
(PID.TID 0000.0001)                 5.000000000000000E+01
(PID.TID 0000.0001)     ;
(PID.TID 0000.0001) exactConserv =  /* Exact Volume Conservation on/off flag*/
(PID.TID 0000.0001)                   F
(PID.TID 0000.0001)     ;
(PID.TID 0000.0001) linFSConserveTr = /* Tracer correction for Lin Free Surface on/off flag*/
(PID.TID 0000.0001)                   F
(PID.TID 0000.0001)     ;
(PID.TID 0000.0001) nonlinFreeSurf = /* Non-linear Free Surf. options (-1,0,1,2,3)*/
(PID.TID 0000.0001)                       0
(PID.TID 0000.0001)      -1,0= Off ; 1,2,3= On, 2=+rescale gU,gV, 3=+update cg2d solv.
(PID.TID 0000.0001)     ;
(PID.TID 0000.0001) hFacInf =   /* lower threshold for hFac (nonlinFreeSurf only)*/
(PID.TID 0000.0001)                 2.000000000000000E-01
(PID.TID 0000.0001)     ;
(PID.TID 0000.0001) hFacSup =   /* upper threshold for hFac (nonlinFreeSurf only)*/
(PID.TID 0000.0001)                 2.000000000000000E+00
(PID.TID 0000.0001)     ;
(PID.TID 0000.0001) select_rStar = /* r* Vertical coord. options (=0 r coord.; >0 uses r*)*/
(PID.TID 0000.0001)                       0
(PID.TID 0000.0001)     ;
(PID.TID 0000.0001) useRealFreshWaterFlux = /* Real Fresh Water Flux on/off flag*/
(PID.TID 0000.0001)                   F
(PID.TID 0000.0001)     ;
(PID.TID 0000.0001) temp_EvPrRn = /* Temp. of Evap/Prec/R (UNSET=use local T)(oC)*/
(PID.TID 0000.0001)                 1.234567000000000E+05
(PID.TID 0000.0001)     ;
(PID.TID 0000.0001) salt_EvPrRn = /* Salin. of Evap/Prec/R (UNSET=use local S)(psu)*/
(PID.TID 0000.0001)                 0.000000000000000E+00
(PID.TID 0000.0001)     ;
(PID.TID 0000.0001) selectAddFluid = /* option for mass source/sink of fluid (=0: off) */
(PID.TID 0000.0001)                       0
(PID.TID 0000.0001)     ;
(PID.TID 0000.0001) temp_addMass = /* Temp. of addMass array (UNSET=use local T)(oC)*/
(PID.TID 0000.0001)                 1.234567000000000E+05
(PID.TID 0000.0001)     ;
(PID.TID 0000.0001) salt_addMass = /* Salin. of addMass array (UNSET=use local S)(psu)*/
(PID.TID 0000.0001)                 0.000000000000000E+00
(PID.TID 0000.0001)     ;
(PID.TID 0000.0001) convertFW2Salt = /* convert F.W. Flux to Salt Flux (-1=use local S)(psu)*/
(PID.TID 0000.0001)                 3.500000000000000E+01
(PID.TID 0000.0001)     ;
(PID.TID 0000.0001) use3Dsolver = /* use 3-D pressure solver on/off flag */
(PID.TID 0000.0001)                   F
(PID.TID 0000.0001)     ;
(PID.TID 0000.0001) nonHydrostatic =  /* Non-Hydrostatic on/off flag */
(PID.TID 0000.0001)                   F
(PID.TID 0000.0001)     ;
(PID.TID 0000.0001) nh_Am2 = /* Non-Hydrostatic terms scaling factor */
(PID.TID 0000.0001)                 1.000000000000000E+00
(PID.TID 0000.0001)     ;
(PID.TID 0000.0001) implicitNHPress = /* Non-Hyd Pressure implicit factor (0-1)*/
(PID.TID 0000.0001)                 1.000000000000000E+00
(PID.TID 0000.0001)     ;
(PID.TID 0000.0001) selectNHfreeSurf = /* Non-Hyd (free-)Surface option */
(PID.TID 0000.0001)                       0
(PID.TID 0000.0001)     ;
(PID.TID 0000.0001) quasiHydrostatic = /* Quasi-Hydrostatic on/off flag */
(PID.TID 0000.0001)                   F
(PID.TID 0000.0001)     ;
(PID.TID 0000.0001) calc_wVelocity = /* vertical velocity calculation on/off flag */
(PID.TID 0000.0001)                   T
(PID.TID 0000.0001)     ;
(PID.TID 0000.0001) momStepping =  /* Momentum equation on/off flag */
(PID.TID 0000.0001)                   T
(PID.TID 0000.0001)     ;
(PID.TID 0000.0001) vectorInvariantMomentum= /* Vector-Invariant Momentum on/off */
(PID.TID 0000.0001)                   F
(PID.TID 0000.0001)     ;
(PID.TID 0000.0001) momAdvection =  /* Momentum advection on/off flag */
(PID.TID 0000.0001)                   T
(PID.TID 0000.0001)     ;
(PID.TID 0000.0001) momViscosity =  /* Momentum viscosity on/off flag */
(PID.TID 0000.0001)                   T
(PID.TID 0000.0001)     ;
(PID.TID 0000.0001) momImplVertAdv= /* Momentum implicit vert. advection on/off*/
(PID.TID 0000.0001)                   F
(PID.TID 0000.0001)     ;
(PID.TID 0000.0001) implicitViscosity = /* Implicit viscosity on/off flag */
(PID.TID 0000.0001)                   T
(PID.TID 0000.0001)     ;
(PID.TID 0000.0001) selectImplicitDrag= /* Implicit bot Drag options (0,1,2)*/
(PID.TID 0000.0001)                       0
(PID.TID 0000.0001)     0= Expl. ; 1= Impl. on provis. Vel ; 2= Fully Impl (with surf.P)
(PID.TID 0000.0001)     ;
(PID.TID 0000.0001) metricTerms =  /* metric-Terms on/off flag */
(PID.TID 0000.0001)                   T
(PID.TID 0000.0001)     ;
(PID.TID 0000.0001) useNHMTerms = /* Non-Hydrostatic Metric-Terms on/off */
(PID.TID 0000.0001)                   F
(PID.TID 0000.0001)     ;
(PID.TID 0000.0001) selectCoriMap = /* Coriolis Map options (0,1,2,3)*/
(PID.TID 0000.0001)                       2
(PID.TID 0000.0001)     0= f-Plane ; 1= Beta-Plane ; 2= Spherical ; 3= read from file
(PID.TID 0000.0001)     ;
(PID.TID 0000.0001) use3dCoriolis = /* 3-D Coriolis on/off flag */
(PID.TID 0000.0001)                   F
(PID.TID 0000.0001)     ;
(PID.TID 0000.0001) useCoriolis =  /* Coriolis on/off flag */
(PID.TID 0000.0001)                   T
(PID.TID 0000.0001)     ;
(PID.TID 0000.0001) useCDscheme =  /* CD scheme on/off flag */
(PID.TID 0000.0001)                   T
(PID.TID 0000.0001)     ;
(PID.TID 0000.0001) useEnergyConservingCoriolis= /* Flx-Form Coriolis scheme flag */
(PID.TID 0000.0001)                   F
(PID.TID 0000.0001)     ;
(PID.TID 0000.0001) useJamartWetPoints= /* Coriolis WetPoints method flag */
(PID.TID 0000.0001)                   F
(PID.TID 0000.0001)     ;
(PID.TID 0000.0001) useJamartMomAdv= /* V.I Non-linear terms Jamart flag */
(PID.TID 0000.0001)                   F
(PID.TID 0000.0001)     ;
(PID.TID 0000.0001) useAbsVorticity= /* V.I Works with f+zeta in Coriolis */
(PID.TID 0000.0001)                   F
(PID.TID 0000.0001)     ;
(PID.TID 0000.0001) selectVortScheme= /* V.I Scheme selector for Vorticity-Term */
(PID.TID 0000.0001)               123456789
(PID.TID 0000.0001)    = 0 : enstrophy (Shallow-Water Eq.) conserving scheme by Sadourny, JAS 75
(PID.TID 0000.0001)    = 1 : same as 0 with modified hFac
(PID.TID 0000.0001)    = 2 : energy conserving scheme (used by Sadourny in JAS 75 paper)
(PID.TID 0000.0001)    = 3 : energy (general) and enstrophy (2D, nonDiv.) conserving scheme
(PID.TID 0000.0001)          from Sadourny (Burridge & Haseler, ECMWF Rep.4, 1977)
(PID.TID 0000.0001)     ;
(PID.TID 0000.0001) upwindVorticity= /* V.I Upwind bias vorticity flag */
(PID.TID 0000.0001)                   F
(PID.TID 0000.0001)     ;
(PID.TID 0000.0001) highOrderVorticity= /* V.I High order vort. advect. flag */
(PID.TID 0000.0001)                   F
(PID.TID 0000.0001)     ;
(PID.TID 0000.0001) upwindShear= /* V.I Upwind vertical Shear advection flag */
(PID.TID 0000.0001)                   F
(PID.TID 0000.0001)     ;
(PID.TID 0000.0001) selectKEscheme= /* V.I Kinetic Energy scheme selector */
(PID.TID 0000.0001)                       0
(PID.TID 0000.0001)     ;
(PID.TID 0000.0001) momForcing =  /* Momentum forcing on/off flag */
(PID.TID 0000.0001)                   T
(PID.TID 0000.0001)     ;
(PID.TID 0000.0001) momTidalForcing = /* Momentum Tidal forcing on/off flag */
(PID.TID 0000.0001)                   T
(PID.TID 0000.0001)     ;
(PID.TID 0000.0001) momPressureForcing =  /* Momentum pressure term on/off flag */
(PID.TID 0000.0001)                   T
(PID.TID 0000.0001)     ;
(PID.TID 0000.0001) implicitIntGravWave= /* Implicit Internal Gravity Wave flag */
(PID.TID 0000.0001)                   F
(PID.TID 0000.0001)     ;
(PID.TID 0000.0001) staggerTimeStep =    /* Stagger time stepping on/off flag */
(PID.TID 0000.0001)                   F
(PID.TID 0000.0001)     ;
(PID.TID 0000.0001) doResetHFactors = /* reset thickness factors @ each time-step */
(PID.TID 0000.0001)                   F
(PID.TID 0000.0001)     ;
(PID.TID 0000.0001) multiDimAdvection =  /* enable/disable Multi-Dim Advection */
(PID.TID 0000.0001)                   T
(PID.TID 0000.0001)     ;
(PID.TID 0000.0001) useMultiDimAdvec =   /* Multi-Dim Advection is/is-not used */
(PID.TID 0000.0001)                   T
(PID.TID 0000.0001)     ;
(PID.TID 0000.0001) implicitDiffusion = /* Implicit Diffusion on/off flag */
(PID.TID 0000.0001)                   T
(PID.TID 0000.0001)     ;
(PID.TID 0000.0001) tempStepping =  /* Temperature equation on/off flag */
(PID.TID 0000.0001)                   T
(PID.TID 0000.0001)     ;
(PID.TID 0000.0001) tempAdvection = /* Temperature advection on/off flag */
(PID.TID 0000.0001)                   T
(PID.TID 0000.0001)     ;
(PID.TID 0000.0001) tempImplVertAdv = /* Temp. implicit vert. advection on/off */
(PID.TID 0000.0001)                   F
(PID.TID 0000.0001)     ;
(PID.TID 0000.0001) tempForcing  =  /* Temperature forcing on/off flag */
(PID.TID 0000.0001)                   T
(PID.TID 0000.0001)     ;
(PID.TID 0000.0001) doThetaClimRelax = /* apply SST relaxation on/off flag */
(PID.TID 0000.0001)                   T
(PID.TID 0000.0001)     ;
(PID.TID 0000.0001) tempIsActiveTr = /* Temp. is a dynamically Active Tracer */
(PID.TID 0000.0001)                   T
(PID.TID 0000.0001)     ;
(PID.TID 0000.0001) saltStepping =  /* Salinity equation on/off flag */
(PID.TID 0000.0001)                   T
(PID.TID 0000.0001)     ;
(PID.TID 0000.0001) saltAdvection = /* Salinity advection on/off flag */
(PID.TID 0000.0001)                   T
(PID.TID 0000.0001)     ;
(PID.TID 0000.0001) saltImplVertAdv = /* Sali. implicit vert. advection on/off */
(PID.TID 0000.0001)                   F
(PID.TID 0000.0001)     ;
(PID.TID 0000.0001) saltForcing  =  /* Salinity forcing on/off flag */
(PID.TID 0000.0001)                   T
(PID.TID 0000.0001)     ;
(PID.TID 0000.0001) doSaltClimRelax = /* apply SSS relaxation on/off flag */
(PID.TID 0000.0001)                   T
(PID.TID 0000.0001)     ;
(PID.TID 0000.0001) saltIsActiveTr = /* Salt  is a dynamically Active Tracer */
(PID.TID 0000.0001)                   T
(PID.TID 0000.0001)     ;
(PID.TID 0000.0001)  readBinaryPrec = /* Precision used for reading binary files */
(PID.TID 0000.0001)                      32
(PID.TID 0000.0001)     ;
(PID.TID 0000.0001) writeBinaryPrec = /* Precision used for writing binary files */
(PID.TID 0000.0001)                      32
(PID.TID 0000.0001)     ;
(PID.TID 0000.0001)  rwSuffixType =   /* select format of mds file suffix */
(PID.TID 0000.0001)                       0
(PID.TID 0000.0001)    = 0 : myIter (I10.10) ;   = 1 : 100*myTime (100th sec) ;
(PID.TID 0000.0001)    = 2 : myTime (seconds);   = 3 : myTime/360 (10th of hr);
(PID.TID 0000.0001)    = 4 : myTime/3600 (hours)
(PID.TID 0000.0001)     ;
(PID.TID 0000.0001)  globalFiles = /* write "global" (=not per tile) files */
(PID.TID 0000.0001)                   F
(PID.TID 0000.0001)     ;
(PID.TID 0000.0001)  useSingleCpuIO = /* only master MPI process does I/O */
(PID.TID 0000.0001)                   T
(PID.TID 0000.0001)     ;
(PID.TID 0000.0001)  useSingleCpuInput = /* only master process reads input */
(PID.TID 0000.0001)                   T
(PID.TID 0000.0001)     ;
(PID.TID 0000.0001) /* debLev[*]  : level of debug & auxiliary message printing */
(PID.TID 0000.0001) debLevZero =  0 ; /* level of disabled aux. msg printing */
(PID.TID 0000.0001)    debLevA =  1 ; /* level of minimum  aux. msg printing */
(PID.TID 0000.0001)    debLevB =  2 ; /* level of low aux. print (report read-file opening)*/
(PID.TID 0000.0001)    debLevC =  3 ; /* level of moderate debug prt (most pkgs debug msg) */
(PID.TID 0000.0001)    debLevD =  4 ; /* level of enhanced debug prt (add DEBUG_STATS prt) */
(PID.TID 0000.0001)    debLevE =  5 ; /* level of extensive debug printing */
(PID.TID 0000.0001) debugLevel =  /* select debug printing level */
(PID.TID 0000.0001)                       2
(PID.TID 0000.0001)     ;
(PID.TID 0000.0001)  plotLevel =  /* select PLOT_FIELD printing level */
(PID.TID 0000.0001)                       2
(PID.TID 0000.0001)     ;
(PID.TID 0000.0001) //
(PID.TID 0000.0001) // Elliptic solver(s) paramters ( PARM02 in namelist )
(PID.TID 0000.0001) //
(PID.TID 0000.0001) cg2dMaxIters =   /* Upper limit on 2d con. grad iterations  */
(PID.TID 0000.0001)                    1000
(PID.TID 0000.0001)     ;
(PID.TID 0000.0001) cg2dChkResFreq =   /* 2d con. grad convergence test frequency */
(PID.TID 0000.0001)                       1
(PID.TID 0000.0001)     ;
(PID.TID 0000.0001) cg2dUseMinResSol= /* use cg2d last-iter(=0) / min-resid.(=1) solution */
(PID.TID 0000.0001)                       0
(PID.TID 0000.0001)     ;
(PID.TID 0000.0001) cg2dTargetResidual =   /* 2d con. grad target residual  */
(PID.TID 0000.0001)                 1.000000000000000E-13
(PID.TID 0000.0001)     ;
(PID.TID 0000.0001) cg2dTargetResWunit =   /* CG2d target residual [W units] */
(PID.TID 0000.0001)                -1.000000000000000E+00
(PID.TID 0000.0001)     ;
(PID.TID 0000.0001) cg2dPreCondFreq =   /* Freq. for updating cg2d preconditioner */
(PID.TID 0000.0001)                       1
(PID.TID 0000.0001)     ;
(PID.TID 0000.0001) useSRCGSolver =  /* use single reduction CG solver(s) */
(PID.TID 0000.0001)                   F
(PID.TID 0000.0001)     ;
(PID.TID 0000.0001) printResidualFreq = /* Freq. for printing CG residual */
(PID.TID 0000.0001)                       0
(PID.TID 0000.0001)     ;
(PID.TID 0000.0001) //
(PID.TID 0000.0001) // Time stepping paramters ( PARM03 in namelist )
(PID.TID 0000.0001) //
(PID.TID 0000.0001) deltaTMom =   /* Momentum equation timestep ( s ) */
(PID.TID 0000.0001)                 9.000000000000000E+02
(PID.TID 0000.0001)     ;
(PID.TID 0000.0001) deltaTFreeSurf = /* FreeSurface equation timestep ( s ) */
(PID.TID 0000.0001)                 9.000000000000000E+02
(PID.TID 0000.0001)     ;
(PID.TID 0000.0001) dTtracerLev =  /* Tracer equation timestep ( s ) */
(PID.TID 0000.0001)    15 @  4.320000000000000E+04              /* K =  1: 15 */
(PID.TID 0000.0001)     ;
(PID.TID 0000.0001) deltaTClock  =   /* Model clock timestep ( s ) */
(PID.TID 0000.0001)                 4.320000000000000E+04
(PID.TID 0000.0001)     ;
(PID.TID 0000.0001) cAdjFreq =   /* Convective adjustment interval ( s ) */
(PID.TID 0000.0001)                 0.000000000000000E+00
(PID.TID 0000.0001)     ;
(PID.TID 0000.0001) momForcingOutAB = /* =1: take Momentum Forcing out of Adams-Bash. stepping */
(PID.TID 0000.0001)                       0
(PID.TID 0000.0001)     ;
(PID.TID 0000.0001) tracForcingOutAB = /* =1: take T,S,pTr Forcing out of Adams-Bash. stepping */
(PID.TID 0000.0001)                       0
(PID.TID 0000.0001)     ;
(PID.TID 0000.0001) momDissip_In_AB = /* put Dissipation Tendency in Adams-Bash. stepping */
(PID.TID 0000.0001)                   T
(PID.TID 0000.0001)     ;
(PID.TID 0000.0001) doAB_onGtGs = /* apply AB on Tendencies (rather than on T,S)*/
(PID.TID 0000.0001)                   T
(PID.TID 0000.0001)     ;
(PID.TID 0000.0001) abEps =   /* Adams-Bashforth-2 stabilizing weight */
(PID.TID 0000.0001)                 1.000000000000000E-01
(PID.TID 0000.0001)     ;
(PID.TID 0000.0001) applyExchUV_early = /* Apply EXCH to U,V earlier in time-step */
(PID.TID 0000.0001)                   F
(PID.TID 0000.0001)     ;
(PID.TID 0000.0001) tauCD =   /* CD coupling time-scale ( s ) */
(PID.TID 0000.0001)                 3.214280000000000E+05
(PID.TID 0000.0001)     ;
(PID.TID 0000.0001) rCD =   /* Normalised CD coupling parameter */
(PID.TID 0000.0001)                 9.971999950222133E-01
(PID.TID 0000.0001)     ;
(PID.TID 0000.0001) epsAB_CD = /* AB-2 stabilizing weight for CD-scheme*/
(PID.TID 0000.0001)                 1.000000000000000E-01
(PID.TID 0000.0001)     ;
(PID.TID 0000.0001) pickupStrictlyMatch= /* stop if pickup do not strictly match */
(PID.TID 0000.0001)                   T
(PID.TID 0000.0001)     ;
(PID.TID 0000.0001) nIter0   =   /* Run starting timestep number */
(PID.TID 0000.0001)                       0
(PID.TID 0000.0001)     ;
(PID.TID 0000.0001) nTimeSteps = /* Number of timesteps */
(PID.TID 0000.0001)                       4
(PID.TID 0000.0001)     ;
(PID.TID 0000.0001) nEndIter =   /* Run ending timestep number */
(PID.TID 0000.0001)                       4
(PID.TID 0000.0001)     ;
(PID.TID 0000.0001) baseTime =   /* Model base time ( s ) */
(PID.TID 0000.0001)                 0.000000000000000E+00
(PID.TID 0000.0001)     ;
(PID.TID 0000.0001) startTime =  /* Run start time ( s ) */
(PID.TID 0000.0001)                 0.000000000000000E+00
(PID.TID 0000.0001)     ;
(PID.TID 0000.0001) endTime  =   /* Integration ending time ( s ) */
(PID.TID 0000.0001)                 1.728000000000000E+05
(PID.TID 0000.0001)     ;
(PID.TID 0000.0001) pChkPtFreq = /* Permanent restart/pickup file interval ( s ) */
(PID.TID 0000.0001)                 2.160000000000000E+05
(PID.TID 0000.0001)     ;
(PID.TID 0000.0001) chkPtFreq  = /* Rolling restart/pickup file interval ( s ) */
(PID.TID 0000.0001)                 2.160000000000000E+05
(PID.TID 0000.0001)     ;
(PID.TID 0000.0001) pickup_write_mdsio =   /* Model IO flag. */
(PID.TID 0000.0001)                   T
(PID.TID 0000.0001)     ;
(PID.TID 0000.0001) pickup_read_mdsio =   /* Model IO flag. */
(PID.TID 0000.0001)                   T
(PID.TID 0000.0001)     ;
(PID.TID 0000.0001) writePickupAtEnd =   /* Model IO flag. */
(PID.TID 0000.0001)                   T
(PID.TID 0000.0001)     ;
(PID.TID 0000.0001) dumpFreq =   /* Model state write out interval ( s ). */
(PID.TID 0000.0001)                 2.160000000000000E+05
(PID.TID 0000.0001)     ;
(PID.TID 0000.0001) dumpInitAndLast= /* write out Initial & Last iter. model state */
(PID.TID 0000.0001)                   T
(PID.TID 0000.0001)     ;
(PID.TID 0000.0001) snapshot_mdsio =   /* Model IO flag. */
(PID.TID 0000.0001)                   T
(PID.TID 0000.0001)     ;
(PID.TID 0000.0001) monitorFreq =   /* Monitor output interval ( s ). */
(PID.TID 0000.0001)                 1.000000000000000E+00
(PID.TID 0000.0001)     ;
(PID.TID 0000.0001) monitorSelect = /* select group of variables to monitor */
(PID.TID 0000.0001)                       3
(PID.TID 0000.0001)     ;
(PID.TID 0000.0001) monitor_stdio =   /* Model IO flag. */
(PID.TID 0000.0001)                   T
(PID.TID 0000.0001)     ;
(PID.TID 0000.0001) externForcingPeriod =   /* forcing period (s) */
(PID.TID 0000.0001)                 2.592000000000000E+06
(PID.TID 0000.0001)     ;
(PID.TID 0000.0001) externForcingCycle =   /* period of the cyle (s). */
(PID.TID 0000.0001)                 3.110400000000000E+07
(PID.TID 0000.0001)     ;
(PID.TID 0000.0001) tauThetaClimRelax =   /* relaxation time scale (s) */
(PID.TID 0000.0001)                 5.184000000000000E+06
(PID.TID 0000.0001)     ;
(PID.TID 0000.0001) tauSaltClimRelax =   /* relaxation time scale (s) */
(PID.TID 0000.0001)                 7.776000000000000E+06
(PID.TID 0000.0001)     ;
(PID.TID 0000.0001) latBandClimRelax =   /* max. Lat. where relaxation */
(PID.TID 0000.0001)                 1.800000000000000E+02
(PID.TID 0000.0001)     ;
(PID.TID 0000.0001) //
(PID.TID 0000.0001) // Gridding paramters ( PARM04 in namelist )
(PID.TID 0000.0001) //
(PID.TID 0000.0001) usingCartesianGrid = /* Cartesian coordinates flag ( True/False ) */
(PID.TID 0000.0001)                   F
(PID.TID 0000.0001)     ;
(PID.TID 0000.0001) usingCylindricalGrid = /* Cylindrical coordinates flag ( True/False ) */
(PID.TID 0000.0001)                   F
(PID.TID 0000.0001)     ;
(PID.TID 0000.0001) usingSphericalPolarGrid = /* Spherical coordinates flag ( True/False ) */
(PID.TID 0000.0001)                   T
(PID.TID 0000.0001)     ;
(PID.TID 0000.0001) usingCurvilinearGrid = /* Curvilinear coordinates flag ( True/False ) */
(PID.TID 0000.0001)                   F
(PID.TID 0000.0001)     ;
(PID.TID 0000.0001) useMin4hFacEdges = /* set hFacW,S as minimum of adjacent hFacC factor */
(PID.TID 0000.0001)                   F
(PID.TID 0000.0001)     ;
(PID.TID 0000.0001) interViscAr_pCell = /* account for partial-cell in interior vert. viscosity */
(PID.TID 0000.0001)                   F
(PID.TID 0000.0001)     ;
(PID.TID 0000.0001) interDiffKr_pCell = /* account for partial-cell in interior vert. diffusion */
(PID.TID 0000.0001)                   F
(PID.TID 0000.0001)     ;
(PID.TID 0000.0001) pCellMix_select = /* option to enhance mixing near surface & bottom */
(PID.TID 0000.0001)                       0
(PID.TID 0000.0001)     ;
(PID.TID 0000.0001) selectSigmaCoord = /* Hybrid-Sigma Vert. Coordinate option */
(PID.TID 0000.0001)                       0
(PID.TID 0000.0001)     ;
(PID.TID 0000.0001) rSigmaBnd = /* r/sigma transition ( units of r ==  m ) */
(PID.TID 0000.0001)                 1.234567000000000E+05
(PID.TID 0000.0001)     ;
(PID.TID 0000.0001) rkSign =   /* index orientation relative to vertical coordinate */
(PID.TID 0000.0001)                -1.000000000000000E+00
(PID.TID 0000.0001)     ;
(PID.TID 0000.0001) gravitySign = /* gravity orientation relative to vertical coordinate */
(PID.TID 0000.0001)                -1.000000000000000E+00
(PID.TID 0000.0001)     ;
(PID.TID 0000.0001) seaLev_Z =  /* reference height of sea-level [m] */
(PID.TID 0000.0001)                 0.000000000000000E+00
(PID.TID 0000.0001)     ;
(PID.TID 0000.0001) top_Pres =  /* reference pressure at the top [Pa] */
(PID.TID 0000.0001)                 0.000000000000000E+00
(PID.TID 0000.0001)     ;
(PID.TID 0000.0001) mass2rUnit = /* convert mass per unit area [kg/m2] to r-units [m] */
(PID.TID 0000.0001)                 9.661835748792270E-04
(PID.TID 0000.0001)     ;
(PID.TID 0000.0001) rUnit2mass = /* convert r-units [m] to mass per unit area [kg/m2] */
(PID.TID 0000.0001)                 1.035000000000000E+03
(PID.TID 0000.0001)     ;
(PID.TID 0000.0001) drC =   /* C spacing ( units of r ) */
(PID.TID 0000.0001)                 2.500000000000000E+01,      /* K =  1 */
(PID.TID 0000.0001)                 6.000000000000000E+01,      /* K =  2 */
(PID.TID 0000.0001)                 8.500000000000000E+01,      /* K =  3 */
(PID.TID 0000.0001)                 1.200000000000000E+02,      /* K =  4 */
(PID.TID 0000.0001)                 1.650000000000000E+02,      /* K =  5 */
(PID.TID 0000.0001)                 2.150000000000000E+02,      /* K =  6 */
(PID.TID 0000.0001)                 2.650000000000000E+02,      /* K =  7 */
(PID.TID 0000.0001)                 3.150000000000000E+02,      /* K =  8 */
(PID.TID 0000.0001)                 3.650000000000000E+02,      /* K =  9 */
(PID.TID 0000.0001)                 4.150000000000000E+02,      /* K = 10 */
(PID.TID 0000.0001)                 4.650000000000000E+02,      /* K = 11 */
(PID.TID 0000.0001)                 5.150000000000000E+02,      /* K = 12 */
(PID.TID 0000.0001)                 5.650000000000000E+02,      /* K = 13 */
(PID.TID 0000.0001)                 6.150000000000000E+02,      /* K = 14 */
(PID.TID 0000.0001)                 6.650000000000000E+02,      /* K = 15 */
(PID.TID 0000.0001)                 3.450000000000000E+02       /* K = 16 */
(PID.TID 0000.0001)     ;
(PID.TID 0000.0001) drF =   /* W spacing ( units of r ) */
(PID.TID 0000.0001)                 5.000000000000000E+01,      /* K =  1 */
(PID.TID 0000.0001)                 7.000000000000000E+01,      /* K =  2 */
(PID.TID 0000.0001)                 1.000000000000000E+02,      /* K =  3 */
(PID.TID 0000.0001)                 1.400000000000000E+02,      /* K =  4 */
(PID.TID 0000.0001)                 1.900000000000000E+02,      /* K =  5 */
(PID.TID 0000.0001)                 2.400000000000000E+02,      /* K =  6 */
(PID.TID 0000.0001)                 2.900000000000000E+02,      /* K =  7 */
(PID.TID 0000.0001)                 3.400000000000000E+02,      /* K =  8 */
(PID.TID 0000.0001)                 3.900000000000000E+02,      /* K =  9 */
(PID.TID 0000.0001)                 4.400000000000000E+02,      /* K = 10 */
(PID.TID 0000.0001)                 4.900000000000000E+02,      /* K = 11 */
(PID.TID 0000.0001)                 5.400000000000000E+02,      /* K = 12 */
(PID.TID 0000.0001)                 5.900000000000000E+02,      /* K = 13 */
(PID.TID 0000.0001)                 6.400000000000000E+02,      /* K = 14 */
(PID.TID 0000.0001)                 6.900000000000000E+02       /* K = 15 */
(PID.TID 0000.0001)     ;
(PID.TID 0000.0001) delX = /* U spacing ( m - cartesian, degrees - spherical ) */
(PID.TID 0000.0001)   128 @  2.812500000000000E+00              /* I =  1:128 */
(PID.TID 0000.0001)     ;
(PID.TID 0000.0001) delY = /* V spacing ( m - cartesian, degrees - spherical ) */
(PID.TID 0000.0001)    64 @  2.812500000000000E+00              /* J =  1: 64 */
(PID.TID 0000.0001)     ;
(PID.TID 0000.0001) xgOrigin = /* X-axis origin of West  edge (cartesian: m, lat-lon: deg) */
(PID.TID 0000.0001)                 0.000000000000000E+00
(PID.TID 0000.0001)     ;
(PID.TID 0000.0001) ygOrigin = /* Y-axis origin of South edge (cartesian: m, lat-lon: deg) */
(PID.TID 0000.0001)                -9.000000000000000E+01
(PID.TID 0000.0001)     ;
(PID.TID 0000.0001) rSphere =  /* Radius ( ignored - cartesian, m - spherical ) */
(PID.TID 0000.0001)                 6.370000000000000E+06
(PID.TID 0000.0001)     ;
(PID.TID 0000.0001) deepAtmosphere = /* Deep/Shallow Atmosphere flag (True/False) */
(PID.TID 0000.0001)                   F
(PID.TID 0000.0001)     ;
(PID.TID 0000.0001) xC =  /* xC(:,1,:,1) : P-point X coord ( deg. or m if cartesian) */
(PID.TID 0000.0001)                 1.406250000000000E+00,      /* I =  1 */
(PID.TID 0000.0001)                 4.218750000000000E+00,      /* I =  2 */
(PID.TID 0000.0001)                 7.031250000000000E+00,      /* I =  3 */
(PID.TID 0000.0001)      . . .
(PID.TID 0000.0001)                 8.296875000000000E+01,      /* I = 30 */
(PID.TID 0000.0001)                 8.578125000000000E+01,      /* I = 31 */
(PID.TID 0000.0001)                 8.859375000000000E+01,      /* I = 32 */
(PID.TID 0000.0001)                 9.140625000000000E+01,      /* I = 33 */
(PID.TID 0000.0001)                 9.421875000000000E+01,      /* I = 34 */
(PID.TID 0000.0001)                 9.703125000000000E+01,      /* I = 35 */
(PID.TID 0000.0001)      . . .
(PID.TID 0000.0001)                 1.729687500000000E+02,      /* I = 62 */
(PID.TID 0000.0001)                 1.757812500000000E+02,      /* I = 63 */
(PID.TID 0000.0001)                 1.785937500000000E+02,      /* I = 64 */
(PID.TID 0000.0001)                 1.814062500000000E+02,      /* I = 65 */
(PID.TID 0000.0001)                 1.842187500000000E+02,      /* I = 66 */
(PID.TID 0000.0001)                 1.870312500000000E+02,      /* I = 67 */
(PID.TID 0000.0001)      . . .
(PID.TID 0000.0001)                 2.629687500000000E+02,      /* I = 94 */
(PID.TID 0000.0001)                 2.657812500000000E+02,      /* I = 95 */
(PID.TID 0000.0001)                 2.685937500000000E+02,      /* I = 96 */
(PID.TID 0000.0001)                 2.714062500000000E+02,      /* I = 97 */
(PID.TID 0000.0001)                 2.742187500000000E+02,      /* I = 98 */
(PID.TID 0000.0001)                 2.770312500000000E+02,      /* I = 99 */
(PID.TID 0000.0001)      . . .
(PID.TID 0000.0001)                 3.529687500000000E+02,      /* I =126 */
(PID.TID 0000.0001)                 3.557812500000000E+02,      /* I =127 */
(PID.TID 0000.0001)                 3.585937500000000E+02       /* I =128 */
(PID.TID 0000.0001)     ;
(PID.TID 0000.0001) yC =  /* yC(1,:,1,:) : P-point Y coord ( deg. or m if cartesian) */
(PID.TID 0000.0001)                -8.859375000000000E+01,      /* J =  1 */
(PID.TID 0000.0001)                -8.578125000000000E+01,      /* J =  2 */
(PID.TID 0000.0001)                -8.296875000000000E+01,      /* J =  3 */
(PID.TID 0000.0001)                -8.015625000000000E+01,      /* J =  4 */
(PID.TID 0000.0001)                -7.734375000000000E+01,      /* J =  5 */
(PID.TID 0000.0001)                -7.453125000000000E+01,      /* J =  6 */
(PID.TID 0000.0001)                -7.171875000000000E+01,      /* J =  7 */
(PID.TID 0000.0001)                -6.890625000000000E+01,      /* J =  8 */
(PID.TID 0000.0001)                -6.609375000000000E+01,      /* J =  9 */
(PID.TID 0000.0001)                -6.328125000000000E+01,      /* J = 10 */
(PID.TID 0000.0001)                -6.046875000000000E+01,      /* J = 11 */
(PID.TID 0000.0001)                -5.765625000000000E+01,      /* J = 12 */
(PID.TID 0000.0001)                -5.484375000000000E+01,      /* J = 13 */
(PID.TID 0000.0001)                -5.203125000000000E+01,      /* J = 14 */
(PID.TID 0000.0001)                -4.921875000000000E+01,      /* J = 15 */
(PID.TID 0000.0001)                -4.640625000000000E+01,      /* J = 16 */
(PID.TID 0000.0001)                -4.359375000000000E+01,      /* J = 17 */
(PID.TID 0000.0001)                -4.078125000000000E+01,      /* J = 18 */
(PID.TID 0000.0001)                -3.796875000000000E+01,      /* J = 19 */
(PID.TID 0000.0001)                -3.515625000000000E+01,      /* J = 20 */
(PID.TID 0000.0001)                -3.234375000000000E+01,      /* J = 21 */
(PID.TID 0000.0001)                -2.953125000000000E+01,      /* J = 22 */
(PID.TID 0000.0001)                -2.671875000000000E+01,      /* J = 23 */
(PID.TID 0000.0001)                -2.390625000000000E+01,      /* J = 24 */
(PID.TID 0000.0001)                -2.109375000000000E+01,      /* J = 25 */
(PID.TID 0000.0001)                -1.828125000000000E+01,      /* J = 26 */
(PID.TID 0000.0001)                -1.546875000000000E+01,      /* J = 27 */
(PID.TID 0000.0001)                -1.265625000000000E+01,      /* J = 28 */
(PID.TID 0000.0001)                -9.843750000000000E+00,      /* J = 29 */
(PID.TID 0000.0001)                -7.031250000000000E+00,      /* J = 30 */
(PID.TID 0000.0001)                -4.218750000000000E+00,      /* J = 31 */
(PID.TID 0000.0001)                -1.406250000000000E+00,      /* J = 32 */
(PID.TID 0000.0001)                 1.406250000000000E+00,      /* J = 33 */
(PID.TID 0000.0001)                 4.218750000000000E+00,      /* J = 34 */
(PID.TID 0000.0001)                 7.031250000000000E+00,      /* J = 35 */
(PID.TID 0000.0001)                 9.843750000000000E+00,      /* J = 36 */
(PID.TID 0000.0001)                 1.265625000000000E+01,      /* J = 37 */
(PID.TID 0000.0001)                 1.546875000000000E+01,      /* J = 38 */
(PID.TID 0000.0001)                 1.828125000000000E+01,      /* J = 39 */
(PID.TID 0000.0001)                 2.109375000000000E+01,      /* J = 40 */
(PID.TID 0000.0001)                 2.390625000000000E+01,      /* J = 41 */
(PID.TID 0000.0001)                 2.671875000000000E+01,      /* J = 42 */
(PID.TID 0000.0001)                 2.953125000000000E+01,      /* J = 43 */
(PID.TID 0000.0001)                 3.234375000000000E+01,      /* J = 44 */
(PID.TID 0000.0001)                 3.515625000000000E+01,      /* J = 45 */
(PID.TID 0000.0001)                 3.796875000000000E+01,      /* J = 46 */
(PID.TID 0000.0001)                 4.078125000000000E+01,      /* J = 47 */
(PID.TID 0000.0001)                 4.359375000000000E+01,      /* J = 48 */
(PID.TID 0000.0001)                 4.640625000000000E+01,      /* J = 49 */
(PID.TID 0000.0001)                 4.921875000000000E+01,      /* J = 50 */
(PID.TID 0000.0001)                 5.203125000000000E+01,      /* J = 51 */
(PID.TID 0000.0001)                 5.484375000000000E+01,      /* J = 52 */
(PID.TID 0000.0001)                 5.765625000000000E+01,      /* J = 53 */
(PID.TID 0000.0001)                 6.046875000000000E+01,      /* J = 54 */
(PID.TID 0000.0001)                 6.328125000000000E+01,      /* J = 55 */
(PID.TID 0000.0001)                 6.609375000000000E+01,      /* J = 56 */
(PID.TID 0000.0001)                 6.890625000000000E+01,      /* J = 57 */
(PID.TID 0000.0001)                 7.171875000000000E+01,      /* J = 58 */
(PID.TID 0000.0001)                 7.453125000000000E+01,      /* J = 59 */
(PID.TID 0000.0001)                 7.734375000000000E+01,      /* J = 60 */
(PID.TID 0000.0001)                 8.015625000000000E+01,      /* J = 61 */
(PID.TID 0000.0001)                 8.296875000000000E+01,      /* J = 62 */
(PID.TID 0000.0001)                 8.578125000000000E+01,      /* J = 63 */
(PID.TID 0000.0001)                 8.859375000000000E+01       /* J = 64 */
(PID.TID 0000.0001)     ;
(PID.TID 0000.0001) rcoord = /* P-point R coordinate (  units of r ) */
(PID.TID 0000.0001)                -2.500000000000000E+01,      /* K =  1 */
(PID.TID 0000.0001)                -8.500000000000000E+01,      /* K =  2 */
(PID.TID 0000.0001)                -1.700000000000000E+02,      /* K =  3 */
(PID.TID 0000.0001)                -2.900000000000000E+02,      /* K =  4 */
(PID.TID 0000.0001)                -4.550000000000000E+02,      /* K =  5 */
(PID.TID 0000.0001)                -6.700000000000000E+02,      /* K =  6 */
(PID.TID 0000.0001)                -9.350000000000000E+02,      /* K =  7 */
(PID.TID 0000.0001)                -1.250000000000000E+03,      /* K =  8 */
(PID.TID 0000.0001)                -1.615000000000000E+03,      /* K =  9 */
(PID.TID 0000.0001)                -2.030000000000000E+03,      /* K = 10 */
(PID.TID 0000.0001)                -2.495000000000000E+03,      /* K = 11 */
(PID.TID 0000.0001)                -3.010000000000000E+03,      /* K = 12 */
(PID.TID 0000.0001)                -3.575000000000000E+03,      /* K = 13 */
(PID.TID 0000.0001)                -4.190000000000000E+03,      /* K = 14 */
(PID.TID 0000.0001)                -4.855000000000000E+03       /* K = 15 */
(PID.TID 0000.0001)     ;
(PID.TID 0000.0001) rF =   /* W-Interf. R coordinate (  units of r ) */
(PID.TID 0000.0001)                 0.000000000000000E+00,      /* K =  1 */
(PID.TID 0000.0001)                -5.000000000000000E+01,      /* K =  2 */
(PID.TID 0000.0001)                -1.200000000000000E+02,      /* K =  3 */
(PID.TID 0000.0001)                -2.200000000000000E+02,      /* K =  4 */
(PID.TID 0000.0001)                -3.600000000000000E+02,      /* K =  5 */
(PID.TID 0000.0001)                -5.500000000000000E+02,      /* K =  6 */
(PID.TID 0000.0001)                -7.900000000000000E+02,      /* K =  7 */
(PID.TID 0000.0001)                -1.080000000000000E+03,      /* K =  8 */
(PID.TID 0000.0001)                -1.420000000000000E+03,      /* K =  9 */
(PID.TID 0000.0001)                -1.810000000000000E+03,      /* K = 10 */
(PID.TID 0000.0001)                -2.250000000000000E+03,      /* K = 11 */
(PID.TID 0000.0001)                -2.740000000000000E+03,      /* K = 12 */
(PID.TID 0000.0001)                -3.280000000000000E+03,      /* K = 13 */
(PID.TID 0000.0001)                -3.870000000000000E+03,      /* K = 14 */
(PID.TID 0000.0001)                -4.510000000000000E+03,      /* K = 15 */
(PID.TID 0000.0001)                -5.200000000000000E+03       /* K = 16 */
(PID.TID 0000.0001)     ;
(PID.TID 0000.0001) deepFacC = /* deep-model grid factor @ cell-Center (-) */
(PID.TID 0000.0001)    15 @  1.000000000000000E+00              /* K =  1: 15 */
(PID.TID 0000.0001)     ;
(PID.TID 0000.0001) deepFacF = /* deep-model grid factor @ W-Interface (-) */
(PID.TID 0000.0001)    16 @  1.000000000000000E+00              /* K =  1: 16 */
(PID.TID 0000.0001)     ;
(PID.TID 0000.0001) rVel2wUnit = /* convert units: rVel -> wSpeed (=1 if z-coord)*/
(PID.TID 0000.0001)    16 @  1.000000000000000E+00              /* K =  1: 16 */
(PID.TID 0000.0001)     ;
(PID.TID 0000.0001) wUnit2rVel = /* convert units: wSpeed -> rVel (=1 if z-coord)*/
(PID.TID 0000.0001)    16 @  1.000000000000000E+00              /* K =  1: 16 */
(PID.TID 0000.0001)     ;
(PID.TID 0000.0001) dBdrRef = /* Vertical grad. of reference buoyancy [(m/s/r)^2] */
(PID.TID 0000.0001)    15 @  0.000000000000000E+00              /* K =  1: 15 */
(PID.TID 0000.0001)     ;
(PID.TID 0000.0001) rotateGrid = /* use rotated grid ( True/False ) */
(PID.TID 0000.0001)                   F
(PID.TID 0000.0001)     ;
(PID.TID 0000.0001) phiEuler = /* Euler angle, rotation about original z-coordinate [rad] */
(PID.TID 0000.0001)                 0.000000000000000E+00
(PID.TID 0000.0001)     ;
(PID.TID 0000.0001) thetaEuler = /* Euler angle, rotation about new x-coordinate [rad] */
(PID.TID 0000.0001)                 0.000000000000000E+00
(PID.TID 0000.0001)     ;
(PID.TID 0000.0001) psiEuler = /* Euler angle, rotation about new z-coordinate [rad] */
(PID.TID 0000.0001)                 0.000000000000000E+00
(PID.TID 0000.0001)     ;
(PID.TID 0000.0001) dxF =  /* dxF(:,1,:,1) ( units: m ) */
(PID.TID 0000.0001)   128 @  7.673714381622299E+03              /* I =  1:128 */
(PID.TID 0000.0001)     ;
(PID.TID 0000.0001) dxF =  /* dxF(1,:,1,:) ( units: m ) */
(PID.TID 0000.0001)                 7.673714381622299E+03,      /* J =  1 */
(PID.TID 0000.0001)                 2.300265649478360E+04,      /* J =  2 */
(PID.TID 0000.0001)                 3.827618319365421E+04,      /* J =  3 */
(PID.TID 0000.0001)                 5.345749921461356E+04,      /* J =  4 */
(PID.TID 0000.0001)                 6.851003143764105E+04,      /* J =  5 */
(PID.TID 0000.0001)                 8.339751699416524E+04,      /* J =  6 */
(PID.TID 0000.0001)                 9.808409062749069E+04,      /* J =  7 */
(PID.TID 0000.0001)                 1.125343710953429E+05,      /* J =  8 */
(PID.TID 0000.0001)                 1.267135464063795E+05,      /* J =  9 */
(PID.TID 0000.0001)                 1.405874576853274E+05,      /* J = 10 */
(PID.TID 0000.0001)                 1.541226814647045E+05,      /* J = 11 */
(PID.TID 0000.0001)                 1.672866102048805E+05,      /* J = 12 */
(PID.TID 0000.0001)                 1.800475308484964E+05,      /* J = 13 */
(PID.TID 0000.0001)                 1.923747012199971E+05,      /* J = 14 */
(PID.TID 0000.0001)                 2.042384240862252E+05,      /* J = 15 */
(PID.TID 0000.0001)                 2.156101186996563E+05,      /* J = 16 */
(PID.TID 0000.0001)                 2.264623896519241E+05,      /* J = 17 */
(PID.TID 0000.0001)                 2.367690928717577E+05,      /* J = 18 */
(PID.TID 0000.0001)                 2.465053986083400E+05,      /* J = 19 */
(PID.TID 0000.0001)                 2.556478512483520E+05,      /* J = 20 */
(PID.TID 0000.0001)                 2.641744258225996E+05,      /* J = 21 */
(PID.TID 0000.0001)                 2.720645810660936E+05,      /* J = 22 */
(PID.TID 0000.0001)                 2.792993089037565E+05,      /* J = 23 */
(PID.TID 0000.0001)                 2.858611802425402E+05,      /* J = 24 */
(PID.TID 0000.0001)                 2.917343869596373E+05,      /* J = 25 */
(PID.TID 0000.0001)                 2.969047799856344E+05,      /* J = 26 */
(PID.TID 0000.0001)                 3.013599033908587E+05,      /* J = 27 */
(PID.TID 0000.0001)                 3.050890243928043E+05,      /* J = 28 */
(PID.TID 0000.0001)                 3.080831592123453E+05,      /* J = 29 */
(PID.TID 0000.0001)                 3.103350947164461E+05,      /* J = 30 */
(PID.TID 0000.0001)                 3.118394057952309E+05,      /* J = 31 */
(PID.TID 0000.0001)     2 @  3.125924684315491E+05,             /* J = 32: 33 */
(PID.TID 0000.0001)                 3.118394057952309E+05,      /* J = 34 */
(PID.TID 0000.0001)                 3.103350947164461E+05,      /* J = 35 */
(PID.TID 0000.0001)                 3.080831592123453E+05,      /* J = 36 */
(PID.TID 0000.0001)                 3.050890243928043E+05,      /* J = 37 */
(PID.TID 0000.0001)                 3.013599033908587E+05,      /* J = 38 */
(PID.TID 0000.0001)                 2.969047799856344E+05,      /* J = 39 */
(PID.TID 0000.0001)                 2.917343869596373E+05,      /* J = 40 */
(PID.TID 0000.0001)                 2.858611802425402E+05,      /* J = 41 */
(PID.TID 0000.0001)                 2.792993089037565E+05,      /* J = 42 */
(PID.TID 0000.0001)                 2.720645810660936E+05,      /* J = 43 */
(PID.TID 0000.0001)                 2.641744258225996E+05,      /* J = 44 */
(PID.TID 0000.0001)                 2.556478512483520E+05,      /* J = 45 */
(PID.TID 0000.0001)                 2.465053986083400E+05,      /* J = 46 */
(PID.TID 0000.0001)                 2.367690928717577E+05,      /* J = 47 */
(PID.TID 0000.0001)                 2.264623896519241E+05,      /* J = 48 */
(PID.TID 0000.0001)                 2.156101186996563E+05,      /* J = 49 */
(PID.TID 0000.0001)                 2.042384240862252E+05,      /* J = 50 */
(PID.TID 0000.0001)                 1.923747012199971E+05,      /* J = 51 */
(PID.TID 0000.0001)                 1.800475308484964E+05,      /* J = 52 */
(PID.TID 0000.0001)                 1.672866102048805E+05,      /* J = 53 */
(PID.TID 0000.0001)                 1.541226814647045E+05,      /* J = 54 */
(PID.TID 0000.0001)                 1.405874576853274E+05,      /* J = 55 */
(PID.TID 0000.0001)                 1.267135464063795E+05,      /* J = 56 */
(PID.TID 0000.0001)                 1.125343710953429E+05,      /* J = 57 */
(PID.TID 0000.0001)                 9.808409062749069E+04,      /* J = 58 */
(PID.TID 0000.0001)                 8.339751699416524E+04,      /* J = 59 */
(PID.TID 0000.0001)                 6.851003143764105E+04,      /* J = 60 */
(PID.TID 0000.0001)                 5.345749921461356E+04,      /* J = 61 */
(PID.TID 0000.0001)                 3.827618319365421E+04,      /* J = 62 */
(PID.TID 0000.0001)                 2.300265649478360E+04,      /* J = 63 */
(PID.TID 0000.0001)                 7.673714381622299E+03       /* J = 64 */
(PID.TID 0000.0001)     ;
(PID.TID 0000.0001) dyF =  /* dyF(:,1,:,1) ( units: m ) */
(PID.TID 0000.0001)   128 @  3.126866438026091E+05              /* I =  1:128 */
(PID.TID 0000.0001)     ;
(PID.TID 0000.0001) dyF =  /* dyF(1,:,1,:) ( units: m ) */
(PID.TID 0000.0001)    64 @  3.126866438026091E+05              /* J =  1: 64 */
(PID.TID 0000.0001)     ;
(PID.TID 0000.0001) dxG =  /* dxG(:,1,:,1) ( units: m ) */
(PID.TID 0000.0001)   128 @  0.000000000000000E+00              /* I =  1:128 */
(PID.TID 0000.0001)     ;
(PID.TID 0000.0001) dxG =  /* dxG(1,:,1,:) ( units: m ) */
(PID.TID 0000.0001)                 0.000000000000000E+00,      /* J =  1 */
(PID.TID 0000.0001)                 1.534280640463982E+04,      /* J =  2 */
(PID.TID 0000.0001)                 3.064865064477965E+04,      /* J =  3 */
(PID.TID 0000.0001)                 4.588065960101153E+04,      /* J =  4 */
(PID.TID 0000.0001)                 6.100213802959342E+04,      /* J =  5 */
(PID.TID 0000.0001)                 7.597665696450579E+04,      /* J =  6 */
(PID.TID 0000.0001)                 9.076814147802138E+04,      /* J =  7 */
(PID.TID 0000.0001)                 1.053409575883663E+05,      /* J =  8 */
(PID.TID 0000.0001)                 1.196599981051027E+05,      /* J =  9 */
(PID.TID 0000.0001)                 1.336907672054259E+05,      /* J = 10 */
(PID.TID 0000.0001)                 1.473994635376230E+05,      /* J = 11 */
(PID.TID 0000.0001)                 1.607530616514898E+05,      /* J = 12 */
(PID.TID 0000.0001)                 1.737193915595329E+05,      /* J = 13 */
(PID.TID 0000.0001)                 1.862672162372875E+05,      /* J = 14 */
(PID.TID 0000.0001)                 1.983663068760452E+05,      /* J = 15 */
(PID.TID 0000.0001)                 2.099875157067021E+05,      /* J = 16 */
(PID.TID 0000.0001)                 2.211028462192875E+05,      /* J = 17 */
(PID.TID 0000.0001)                 2.316855206090084E+05,      /* J = 18 */
(PID.TID 0000.0001)                 2.417100442863276E+05,      /* J = 19 */
(PID.TID 0000.0001)                 2.511522672956614E+05,      /* J = 20 */
(PID.TID 0000.0001)                 2.599894424947394E+05,      /* J = 21 */
(PID.TID 0000.0001)                 2.682002803544621E+05,      /* J = 22 */
(PID.TID 0000.0001)                 2.757650002472408E+05,      /* J = 23 */
(PID.TID 0000.0001)                 2.826653781002625E+05,      /* J = 24 */
(PID.TID 0000.0001)                 2.888847902988777E+05,      /* J = 25 */
(PID.TID 0000.0001)                 2.944082537343438E+05,      /* J = 26 */
(PID.TID 0000.0001)                 2.992224618994463E+05,      /* J = 27 */
(PID.TID 0000.0001)                 3.033158169450409E+05,      /* J = 28 */
(PID.TID 0000.0001)                 3.066784576202870E+05,      /* J = 29 */
(PID.TID 0000.0001)                 3.093022830292655E+05,      /* J = 30 */
(PID.TID 0000.0001)                 3.111809721467461E+05,      /* J = 31 */
(PID.TID 0000.0001)                 3.123099990460912E+05,      /* J = 32 */
(PID.TID 0000.0001)                 3.126866438026091E+05,      /* J = 33 */
(PID.TID 0000.0001)                 3.123099990460912E+05,      /* J = 34 */
(PID.TID 0000.0001)                 3.111809721467461E+05,      /* J = 35 */
(PID.TID 0000.0001)                 3.093022830292655E+05,      /* J = 36 */
(PID.TID 0000.0001)                 3.066784576202870E+05,      /* J = 37 */
(PID.TID 0000.0001)                 3.033158169450409E+05,      /* J = 38 */
(PID.TID 0000.0001)                 2.992224618994463E+05,      /* J = 39 */
(PID.TID 0000.0001)                 2.944082537343438E+05,      /* J = 40 */
(PID.TID 0000.0001)                 2.888847902988777E+05,      /* J = 41 */
(PID.TID 0000.0001)                 2.826653781002625E+05,      /* J = 42 */
(PID.TID 0000.0001)                 2.757650002472408E+05,      /* J = 43 */
(PID.TID 0000.0001)                 2.682002803544621E+05,      /* J = 44 */
(PID.TID 0000.0001)                 2.599894424947394E+05,      /* J = 45 */
(PID.TID 0000.0001)                 2.511522672956614E+05,      /* J = 46 */
(PID.TID 0000.0001)                 2.417100442863276E+05,      /* J = 47 */
(PID.TID 0000.0001)                 2.316855206090084E+05,      /* J = 48 */
(PID.TID 0000.0001)                 2.211028462192875E+05,      /* J = 49 */
(PID.TID 0000.0001)                 2.099875157067021E+05,      /* J = 50 */
(PID.TID 0000.0001)                 1.983663068760452E+05,      /* J = 51 */
(PID.TID 0000.0001)                 1.862672162372875E+05,      /* J = 52 */
(PID.TID 0000.0001)                 1.737193915595329E+05,      /* J = 53 */
(PID.TID 0000.0001)                 1.607530616514898E+05,      /* J = 54 */
(PID.TID 0000.0001)                 1.473994635376230E+05,      /* J = 55 */
(PID.TID 0000.0001)                 1.336907672054259E+05,      /* J = 56 */
(PID.TID 0000.0001)                 1.196599981051027E+05,      /* J = 57 */
(PID.TID 0000.0001)                 1.053409575883663E+05,      /* J = 58 */
(PID.TID 0000.0001)                 9.076814147802138E+04,      /* J = 59 */
(PID.TID 0000.0001)                 7.597665696450579E+04,      /* J = 60 */
(PID.TID 0000.0001)                 6.100213802959342E+04,      /* J = 61 */
(PID.TID 0000.0001)                 4.588065960101153E+04,      /* J = 62 */
(PID.TID 0000.0001)                 3.064865064477965E+04,      /* J = 63 */
(PID.TID 0000.0001)                 1.534280640463982E+04       /* J = 64 */
(PID.TID 0000.0001)     ;
(PID.TID 0000.0001) dyG =  /* dyG(:,1,:,1) ( units: m ) */
(PID.TID 0000.0001)   128 @  3.126866438026091E+05              /* I =  1:128 */
(PID.TID 0000.0001)     ;
(PID.TID 0000.0001) dyG =  /* dyG(1,:,1,:) ( units: m ) */
(PID.TID 0000.0001)    64 @  3.126866438026091E+05              /* J =  1: 64 */
(PID.TID 0000.0001)     ;
(PID.TID 0000.0001) dxC =  /* dxC(:,1,:,1) ( units: m ) */
(PID.TID 0000.0001)   128 @  7.673714381622299E+03              /* I =  1:128 */
(PID.TID 0000.0001)     ;
(PID.TID 0000.0001) dxC =  /* dxC(1,:,1,:) ( units: m ) */
(PID.TID 0000.0001)                 7.673714381622299E+03,      /* J =  1 */
(PID.TID 0000.0001)                 2.300265649478360E+04,      /* J =  2 */
(PID.TID 0000.0001)                 3.827618319365421E+04,      /* J =  3 */
(PID.TID 0000.0001)                 5.345749921461356E+04,      /* J =  4 */
(PID.TID 0000.0001)                 6.851003143764105E+04,      /* J =  5 */
(PID.TID 0000.0001)                 8.339751699416524E+04,      /* J =  6 */
(PID.TID 0000.0001)                 9.808409062749069E+04,      /* J =  7 */
(PID.TID 0000.0001)                 1.125343710953429E+05,      /* J =  8 */
(PID.TID 0000.0001)                 1.267135464063795E+05,      /* J =  9 */
(PID.TID 0000.0001)                 1.405874576853274E+05,      /* J = 10 */
(PID.TID 0000.0001)                 1.541226814647045E+05,      /* J = 11 */
(PID.TID 0000.0001)                 1.672866102048805E+05,      /* J = 12 */
(PID.TID 0000.0001)                 1.800475308484964E+05,      /* J = 13 */
(PID.TID 0000.0001)                 1.923747012199971E+05,      /* J = 14 */
(PID.TID 0000.0001)                 2.042384240862252E+05,      /* J = 15 */
(PID.TID 0000.0001)                 2.156101186996563E+05,      /* J = 16 */
(PID.TID 0000.0001)                 2.264623896519241E+05,      /* J = 17 */
(PID.TID 0000.0001)                 2.367690928717577E+05,      /* J = 18 */
(PID.TID 0000.0001)                 2.465053986083400E+05,      /* J = 19 */
(PID.TID 0000.0001)                 2.556478512483520E+05,      /* J = 20 */
(PID.TID 0000.0001)                 2.641744258225996E+05,      /* J = 21 */
(PID.TID 0000.0001)                 2.720645810660936E+05,      /* J = 22 */
(PID.TID 0000.0001)                 2.792993089037565E+05,      /* J = 23 */
(PID.TID 0000.0001)                 2.858611802425402E+05,      /* J = 24 */
(PID.TID 0000.0001)                 2.917343869596373E+05,      /* J = 25 */
(PID.TID 0000.0001)                 2.969047799856344E+05,      /* J = 26 */
(PID.TID 0000.0001)                 3.013599033908587E+05,      /* J = 27 */
(PID.TID 0000.0001)                 3.050890243928043E+05,      /* J = 28 */
(PID.TID 0000.0001)                 3.080831592123453E+05,      /* J = 29 */
(PID.TID 0000.0001)                 3.103350947164461E+05,      /* J = 30 */
(PID.TID 0000.0001)                 3.118394057952309E+05,      /* J = 31 */
(PID.TID 0000.0001)     2 @  3.125924684315491E+05,             /* J = 32: 33 */
(PID.TID 0000.0001)                 3.118394057952309E+05,      /* J = 34 */
(PID.TID 0000.0001)                 3.103350947164461E+05,      /* J = 35 */
(PID.TID 0000.0001)                 3.080831592123453E+05,      /* J = 36 */
(PID.TID 0000.0001)                 3.050890243928043E+05,      /* J = 37 */
(PID.TID 0000.0001)                 3.013599033908587E+05,      /* J = 38 */
(PID.TID 0000.0001)                 2.969047799856344E+05,      /* J = 39 */
(PID.TID 0000.0001)                 2.917343869596373E+05,      /* J = 40 */
(PID.TID 0000.0001)                 2.858611802425402E+05,      /* J = 41 */
(PID.TID 0000.0001)                 2.792993089037565E+05,      /* J = 42 */
(PID.TID 0000.0001)                 2.720645810660936E+05,      /* J = 43 */
(PID.TID 0000.0001)                 2.641744258225996E+05,      /* J = 44 */
(PID.TID 0000.0001)                 2.556478512483520E+05,      /* J = 45 */
(PID.TID 0000.0001)                 2.465053986083400E+05,      /* J = 46 */
(PID.TID 0000.0001)                 2.367690928717577E+05,      /* J = 47 */
(PID.TID 0000.0001)                 2.264623896519241E+05,      /* J = 48 */
(PID.TID 0000.0001)                 2.156101186996563E+05,      /* J = 49 */
(PID.TID 0000.0001)                 2.042384240862252E+05,      /* J = 50 */
(PID.TID 0000.0001)                 1.923747012199971E+05,      /* J = 51 */
(PID.TID 0000.0001)                 1.800475308484964E+05,      /* J = 52 */
(PID.TID 0000.0001)                 1.672866102048805E+05,      /* J = 53 */
(PID.TID 0000.0001)                 1.541226814647045E+05,      /* J = 54 */
(PID.TID 0000.0001)                 1.405874576853274E+05,      /* J = 55 */
(PID.TID 0000.0001)                 1.267135464063795E+05,      /* J = 56 */
(PID.TID 0000.0001)                 1.125343710953429E+05,      /* J = 57 */
(PID.TID 0000.0001)                 9.808409062749069E+04,      /* J = 58 */
(PID.TID 0000.0001)                 8.339751699416524E+04,      /* J = 59 */
(PID.TID 0000.0001)                 6.851003143764105E+04,      /* J = 60 */
(PID.TID 0000.0001)                 5.345749921461356E+04,      /* J = 61 */
(PID.TID 0000.0001)                 3.827618319365421E+04,      /* J = 62 */
(PID.TID 0000.0001)                 2.300265649478360E+04,      /* J = 63 */
(PID.TID 0000.0001)                 7.673714381622299E+03       /* J = 64 */
(PID.TID 0000.0001)     ;
(PID.TID 0000.0001) dyC =  /* dyC(:,1,:,1) ( units: m ) */
(PID.TID 0000.0001)   128 @  3.126866438026091E+05              /* I =  1:128 */
(PID.TID 0000.0001)     ;
(PID.TID 0000.0001) dyC =  /* dyC(1,:,1,:) ( units: m ) */
(PID.TID 0000.0001)    64 @  3.126866438026091E+05              /* J =  1: 64 */
(PID.TID 0000.0001)     ;
(PID.TID 0000.0001) dxV =  /* dxV(:,1,:,1) ( units: m ) */
(PID.TID 0000.0001)   128 @  0.000000000000000E+00              /* I =  1:128 */
(PID.TID 0000.0001)     ;
(PID.TID 0000.0001) dxV =  /* dxV(1,:,1,:) ( units: m ) */
(PID.TID 0000.0001)                 0.000000000000000E+00,      /* J =  1 */
(PID.TID 0000.0001)                 1.534280640463982E+04,      /* J =  2 */
(PID.TID 0000.0001)                 3.064865064477965E+04,      /* J =  3 */
(PID.TID 0000.0001)                 4.588065960101153E+04,      /* J =  4 */
(PID.TID 0000.0001)                 6.100213802959342E+04,      /* J =  5 */
(PID.TID 0000.0001)                 7.597665696450579E+04,      /* J =  6 */
(PID.TID 0000.0001)                 9.076814147802138E+04,      /* J =  7 */
(PID.TID 0000.0001)                 1.053409575883663E+05,      /* J =  8 */
(PID.TID 0000.0001)                 1.196599981051027E+05,      /* J =  9 */
(PID.TID 0000.0001)                 1.336907672054259E+05,      /* J = 10 */
(PID.TID 0000.0001)                 1.473994635376230E+05,      /* J = 11 */
(PID.TID 0000.0001)                 1.607530616514898E+05,      /* J = 12 */
(PID.TID 0000.0001)                 1.737193915595329E+05,      /* J = 13 */
(PID.TID 0000.0001)                 1.862672162372875E+05,      /* J = 14 */
(PID.TID 0000.0001)                 1.983663068760452E+05,      /* J = 15 */
(PID.TID 0000.0001)                 2.099875157067021E+05,      /* J = 16 */
(PID.TID 0000.0001)                 2.211028462192875E+05,      /* J = 17 */
(PID.TID 0000.0001)                 2.316855206090084E+05,      /* J = 18 */
(PID.TID 0000.0001)                 2.417100442863276E+05,      /* J = 19 */
(PID.TID 0000.0001)                 2.511522672956614E+05,      /* J = 20 */
(PID.TID 0000.0001)                 2.599894424947394E+05,      /* J = 21 */
(PID.TID 0000.0001)                 2.682002803544621E+05,      /* J = 22 */
(PID.TID 0000.0001)                 2.757650002472408E+05,      /* J = 23 */
(PID.TID 0000.0001)                 2.826653781002625E+05,      /* J = 24 */
(PID.TID 0000.0001)                 2.888847902988777E+05,      /* J = 25 */
(PID.TID 0000.0001)                 2.944082537343438E+05,      /* J = 26 */
(PID.TID 0000.0001)                 2.992224618994463E+05,      /* J = 27 */
(PID.TID 0000.0001)                 3.033158169450409E+05,      /* J = 28 */
(PID.TID 0000.0001)                 3.066784576202870E+05,      /* J = 29 */
(PID.TID 0000.0001)                 3.093022830292655E+05,      /* J = 30 */
(PID.TID 0000.0001)                 3.111809721467461E+05,      /* J = 31 */
(PID.TID 0000.0001)                 3.123099990460912E+05,      /* J = 32 */
(PID.TID 0000.0001)                 3.126866438026091E+05,      /* J = 33 */
(PID.TID 0000.0001)                 3.123099990460912E+05,      /* J = 34 */
(PID.TID 0000.0001)                 3.111809721467461E+05,      /* J = 35 */
(PID.TID 0000.0001)                 3.093022830292655E+05,      /* J = 36 */
(PID.TID 0000.0001)                 3.066784576202870E+05,      /* J = 37 */
(PID.TID 0000.0001)                 3.033158169450409E+05,      /* J = 38 */
(PID.TID 0000.0001)                 2.992224618994463E+05,      /* J = 39 */
(PID.TID 0000.0001)                 2.944082537343438E+05,      /* J = 40 */
(PID.TID 0000.0001)                 2.888847902988777E+05,      /* J = 41 */
(PID.TID 0000.0001)                 2.826653781002625E+05,      /* J = 42 */
(PID.TID 0000.0001)                 2.757650002472408E+05,      /* J = 43 */
(PID.TID 0000.0001)                 2.682002803544621E+05,      /* J = 44 */
(PID.TID 0000.0001)                 2.599894424947394E+05,      /* J = 45 */
(PID.TID 0000.0001)                 2.511522672956614E+05,      /* J = 46 */
(PID.TID 0000.0001)                 2.417100442863276E+05,      /* J = 47 */
(PID.TID 0000.0001)                 2.316855206090084E+05,      /* J = 48 */
(PID.TID 0000.0001)                 2.211028462192875E+05,      /* J = 49 */
(PID.TID 0000.0001)                 2.099875157067021E+05,      /* J = 50 */
(PID.TID 0000.0001)                 1.983663068760452E+05,      /* J = 51 */
(PID.TID 0000.0001)                 1.862672162372875E+05,      /* J = 52 */
(PID.TID 0000.0001)                 1.737193915595329E+05,      /* J = 53 */
(PID.TID 0000.0001)                 1.607530616514898E+05,      /* J = 54 */
(PID.TID 0000.0001)                 1.473994635376230E+05,      /* J = 55 */
(PID.TID 0000.0001)                 1.336907672054259E+05,      /* J = 56 */
(PID.TID 0000.0001)                 1.196599981051027E+05,      /* J = 57 */
(PID.TID 0000.0001)                 1.053409575883663E+05,      /* J = 58 */
(PID.TID 0000.0001)                 9.076814147802138E+04,      /* J = 59 */
(PID.TID 0000.0001)                 7.597665696450579E+04,      /* J = 60 */
(PID.TID 0000.0001)                 6.100213802959342E+04,      /* J = 61 */
(PID.TID 0000.0001)                 4.588065960101153E+04,      /* J = 62 */
(PID.TID 0000.0001)                 3.064865064477965E+04,      /* J = 63 */
(PID.TID 0000.0001)                 1.534280640463982E+04       /* J = 64 */
(PID.TID 0000.0001)     ;
(PID.TID 0000.0001) dyU =  /* dyU(:,1,:,1) ( units: m ) */
(PID.TID 0000.0001)   128 @  3.126866438026091E+05              /* I =  1:128 */
(PID.TID 0000.0001)     ;
(PID.TID 0000.0001) dyU =  /* dyU(1,:,1,:) ( units: m ) */
(PID.TID 0000.0001)    64 @  3.126866438026091E+05              /* J =  1: 64 */
(PID.TID 0000.0001)     ;
(PID.TID 0000.0001) rA  =  /* rA (:,1,:,1) ( units: m^2 ) */
(PID.TID 0000.0001)   128 @  2.399227099019018E+09              /* I =  1:128 */
(PID.TID 0000.0001)     ;
(PID.TID 0000.0001) rA  =  /* rA (1,:,1,:) ( units: m^2 ) */
(PID.TID 0000.0001)                 2.399227099019018E+09,      /* J =  1 */
(PID.TID 0000.0001)                 7.191901348828056E+09,      /* J =  2 */
(PID.TID 0000.0001)                 1.196724967835171E+10,      /* J =  3 */
(PID.TID 0000.0001)                 1.671376785519299E+10,      /* J =  4 */
(PID.TID 0000.0001)                 2.142002110131771E+10,      /* J =  5 */
(PID.TID 0000.0001)                 2.607467164043704E+10,      /* J =  6 */
(PID.TID 0000.0001)                 3.066650601170349E+10,      /* J =  7 */
(PID.TID 0000.0001)                 3.518446208391881E+10,      /* J =  8 */
(PID.TID 0000.0001)                 3.961765570517892E+10,      /* J =  9 */
(PID.TID 0000.0001)                 4.395540692374860E+10,      /* J = 10 */
(PID.TID 0000.0001)                 4.818726571700000E+10,      /* J = 11 */
(PID.TID 0000.0001)                 5.230303716643355E+10,      /* J = 12 */
(PID.TID 0000.0001)                 5.629280601812719E+10,      /* J = 13 */
(PID.TID 0000.0001)                 6.014696056945681E+10,      /* J = 14 */
(PID.TID 0000.0001)                 6.385621582452237E+10,      /* J = 15 */
(PID.TID 0000.0001)                 6.741163586252281E+10,      /* J = 16 */
(PID.TID 0000.0001)                 7.080465536516846E+10,      /* J = 17 */
(PID.TID 0000.0001)                 7.402710025128452E+10,      /* J = 18 */
(PID.TID 0000.0001)                 7.707120736888658E+10,      /* J = 19 */
(PID.TID 0000.0001)                 7.992964319729683E+10,      /* J = 20 */
(PID.TID 0000.0001)                 8.259552151423444E+10,      /* J = 21 */
(PID.TID 0000.0001)                 8.506241998533159E+10,      /* J = 22 */
(PID.TID 0000.0001)                 8.732439563609566E+10,      /* J = 23 */
(PID.TID 0000.0001)                 8.937599916905872E+10,      /* J = 24 */
(PID.TID 0000.0001)                 9.121228809161066E+10,      /* J = 25 */
(PID.TID 0000.0001)                 9.282883862289705E+10,      /* J = 26 */
(PID.TID 0000.0001)                 9.422175635109474E+10,      /* J = 27 */
(PID.TID 0000.0001)                 9.538768561539165E+10,      /* J = 28 */
(PID.TID 0000.0001)                 9.632381759006650E+10,      /* J = 29 */
(PID.TID 0000.0001)                 9.702789705119698E+10,      /* J = 30 */
(PID.TID 0000.0001)                 9.749822780969106E+10,      /* J = 31 */
(PID.TID 0000.0001)     2 @  9.773367679755542E+10,             /* J = 32: 33 */
(PID.TID 0000.0001)                 9.749822780969106E+10,      /* J = 34 */
(PID.TID 0000.0001)                 9.702789705119698E+10,      /* J = 35 */
(PID.TID 0000.0001)                 9.632381759006650E+10,      /* J = 36 */
(PID.TID 0000.0001)                 9.538768561539165E+10,      /* J = 37 */
(PID.TID 0000.0001)                 9.422175635109474E+10,      /* J = 38 */
(PID.TID 0000.0001)                 9.282883862289705E+10,      /* J = 39 */
(PID.TID 0000.0001)                 9.121228809161066E+10,      /* J = 40 */
(PID.TID 0000.0001)                 8.937599916905872E+10,      /* J = 41 */
(PID.TID 0000.0001)                 8.732439563609566E+10,      /* J = 42 */
(PID.TID 0000.0001)                 8.506241998533159E+10,      /* J = 43 */
(PID.TID 0000.0001)                 8.259552151423444E+10,      /* J = 44 */
(PID.TID 0000.0001)                 7.992964319729683E+10,      /* J = 45 */
(PID.TID 0000.0001)                 7.707120736888658E+10,      /* J = 46 */
(PID.TID 0000.0001)                 7.402710025128452E+10,      /* J = 47 */
(PID.TID 0000.0001)                 7.080465536516846E+10,      /* J = 48 */
(PID.TID 0000.0001)                 6.741163586252281E+10,      /* J = 49 */
(PID.TID 0000.0001)                 6.385621582452237E+10,      /* J = 50 */
(PID.TID 0000.0001)                 6.014696056945681E+10,      /* J = 51 */
(PID.TID 0000.0001)                 5.629280601812719E+10,      /* J = 52 */
(PID.TID 0000.0001)                 5.230303716643355E+10,      /* J = 53 */
(PID.TID 0000.0001)                 4.818726571700000E+10,      /* J = 54 */
(PID.TID 0000.0001)                 4.395540692374860E+10,      /* J = 55 */
(PID.TID 0000.0001)                 3.961765570517892E+10,      /* J = 56 */
(PID.TID 0000.0001)                 3.518446208391881E+10,      /* J = 57 */
(PID.TID 0000.0001)                 3.066650601170349E+10,      /* J = 58 */
(PID.TID 0000.0001)                 2.607467164043704E+10,      /* J = 59 */
(PID.TID 0000.0001)                 2.142002110131771E+10,      /* J = 60 */
(PID.TID 0000.0001)                 1.671376785519299E+10,      /* J = 61 */
(PID.TID 0000.0001)                 1.196724967835171E+10,      /* J = 62 */
(PID.TID 0000.0001)                 7.191901348828056E+09,      /* J = 63 */
(PID.TID 0000.0001)                 2.399227099019018E+09       /* J = 64 */
(PID.TID 0000.0001)     ;
(PID.TID 0000.0001) rAw =  /* rAw(:,1,:,1) ( units: m^2 ) */
(PID.TID 0000.0001)   128 @  2.399227099019018E+09              /* I =  1:128 */
(PID.TID 0000.0001)     ;
(PID.TID 0000.0001) rAw =  /* rAw(1,:,1,:) ( units: m^2 ) */
(PID.TID 0000.0001)                 2.399227099019018E+09,      /* J =  1 */
(PID.TID 0000.0001)                 7.191901348828056E+09,      /* J =  2 */
(PID.TID 0000.0001)                 1.196724967835171E+10,      /* J =  3 */
(PID.TID 0000.0001)                 1.671376785519299E+10,      /* J =  4 */
(PID.TID 0000.0001)                 2.142002110131771E+10,      /* J =  5 */
(PID.TID 0000.0001)                 2.607467164043704E+10,      /* J =  6 */
(PID.TID 0000.0001)                 3.066650601170349E+10,      /* J =  7 */
(PID.TID 0000.0001)                 3.518446208391881E+10,      /* J =  8 */
(PID.TID 0000.0001)                 3.961765570517892E+10,      /* J =  9 */
(PID.TID 0000.0001)                 4.395540692374860E+10,      /* J = 10 */
(PID.TID 0000.0001)                 4.818726571700000E+10,      /* J = 11 */
(PID.TID 0000.0001)                 5.230303716643355E+10,      /* J = 12 */
(PID.TID 0000.0001)                 5.629280601812719E+10,      /* J = 13 */
(PID.TID 0000.0001)                 6.014696056945681E+10,      /* J = 14 */
(PID.TID 0000.0001)                 6.385621582452237E+10,      /* J = 15 */
(PID.TID 0000.0001)                 6.741163586252281E+10,      /* J = 16 */
(PID.TID 0000.0001)                 7.080465536516846E+10,      /* J = 17 */
(PID.TID 0000.0001)                 7.402710025128452E+10,      /* J = 18 */
(PID.TID 0000.0001)                 7.707120736888658E+10,      /* J = 19 */
(PID.TID 0000.0001)                 7.992964319729683E+10,      /* J = 20 */
(PID.TID 0000.0001)                 8.259552151423444E+10,      /* J = 21 */
(PID.TID 0000.0001)                 8.506241998533159E+10,      /* J = 22 */
(PID.TID 0000.0001)                 8.732439563609566E+10,      /* J = 23 */
(PID.TID 0000.0001)                 8.937599916905872E+10,      /* J = 24 */
(PID.TID 0000.0001)                 9.121228809161066E+10,      /* J = 25 */
(PID.TID 0000.0001)                 9.282883862289705E+10,      /* J = 26 */
(PID.TID 0000.0001)                 9.422175635109474E+10,      /* J = 27 */
(PID.TID 0000.0001)                 9.538768561539165E+10,      /* J = 28 */
(PID.TID 0000.0001)                 9.632381759006650E+10,      /* J = 29 */
(PID.TID 0000.0001)                 9.702789705119698E+10,      /* J = 30 */
(PID.TID 0000.0001)                 9.749822780969106E+10,      /* J = 31 */
(PID.TID 0000.0001)     2 @  9.773367679755542E+10,             /* J = 32: 33 */
(PID.TID 0000.0001)                 9.749822780969106E+10,      /* J = 34 */
(PID.TID 0000.0001)                 9.702789705119698E+10,      /* J = 35 */
(PID.TID 0000.0001)                 9.632381759006650E+10,      /* J = 36 */
(PID.TID 0000.0001)                 9.538768561539165E+10,      /* J = 37 */
(PID.TID 0000.0001)                 9.422175635109474E+10,      /* J = 38 */
(PID.TID 0000.0001)                 9.282883862289705E+10,      /* J = 39 */
(PID.TID 0000.0001)                 9.121228809161066E+10,      /* J = 40 */
(PID.TID 0000.0001)                 8.937599916905872E+10,      /* J = 41 */
(PID.TID 0000.0001)                 8.732439563609566E+10,      /* J = 42 */
(PID.TID 0000.0001)                 8.506241998533159E+10,      /* J = 43 */
(PID.TID 0000.0001)                 8.259552151423444E+10,      /* J = 44 */
(PID.TID 0000.0001)                 7.992964319729683E+10,      /* J = 45 */
(PID.TID 0000.0001)                 7.707120736888658E+10,      /* J = 46 */
(PID.TID 0000.0001)                 7.402710025128452E+10,      /* J = 47 */
(PID.TID 0000.0001)                 7.080465536516846E+10,      /* J = 48 */
(PID.TID 0000.0001)                 6.741163586252281E+10,      /* J = 49 */
(PID.TID 0000.0001)                 6.385621582452237E+10,      /* J = 50 */
(PID.TID 0000.0001)                 6.014696056945681E+10,      /* J = 51 */
(PID.TID 0000.0001)                 5.629280601812719E+10,      /* J = 52 */
(PID.TID 0000.0001)                 5.230303716643355E+10,      /* J = 53 */
(PID.TID 0000.0001)                 4.818726571700000E+10,      /* J = 54 */
(PID.TID 0000.0001)                 4.395540692374860E+10,      /* J = 55 */
(PID.TID 0000.0001)                 3.961765570517892E+10,      /* J = 56 */
(PID.TID 0000.0001)                 3.518446208391881E+10,      /* J = 57 */
(PID.TID 0000.0001)                 3.066650601170349E+10,      /* J = 58 */
(PID.TID 0000.0001)                 2.607467164043704E+10,      /* J = 59 */
(PID.TID 0000.0001)                 2.142002110131771E+10,      /* J = 60 */
(PID.TID 0000.0001)                 1.671376785519299E+10,      /* J = 61 */
(PID.TID 0000.0001)                 1.196724967835171E+10,      /* J = 62 */
(PID.TID 0000.0001)                 7.191901348828056E+09,      /* J = 63 */
(PID.TID 0000.0001)                 2.399227099019018E+09       /* J = 64 */
(PID.TID 0000.0001)     ;
(PID.TID 0000.0001) rAs =  /* rAs(:,1,:,1) ( units: m^2 ) */
(PID.TID 0000.0001)   128 @  0.000000000000000E+00              /* I =  1:128 */
(PID.TID 0000.0001)     ;
(PID.TID 0000.0001) rAs =  /* rAs(1,:,1,:) ( units: m^2 ) */
(PID.TID 0000.0001)                 0.000000000000000E+00,      /* J =  1 */
(PID.TID 0000.0001)                 4.797008993346594E+09,      /* J =  2 */
(PID.TID 0000.0001)                 9.582461571859739E+09,      /* J =  3 */
(PID.TID 0000.0001)                 1.434482916112175E+10,      /* J =  4 */
(PID.TID 0000.0001)                 1.907263880047594E+10,      /* J =  5 */
(PID.TID 0000.0001)                 2.375450078239423E+10,      /* J =  6 */
(PID.TID 0000.0001)                 2.837913609127881E+10,      /* J =  7 */
(PID.TID 0000.0001)                 3.293540357560110E+10,      /* J =  8 */
(PID.TID 0000.0001)                 3.741232678790870E+10,      /* J =  9 */
(PID.TID 0000.0001)                 4.179912042805190E+10,      /* J = 10 */
(PID.TID 0000.0001)                 4.608521632591324E+10,      /* J = 11 */
(PID.TID 0000.0001)                 5.026028890105701E+10,      /* J = 12 */
(PID.TID 0000.0001)                 5.431428003795675E+10,      /* J = 13 */
(PID.TID 0000.0001)                 5.823742331687641E+10,      /* J = 14 */
(PID.TID 0000.0001)                 6.202026754202965E+10,      /* J = 15 */
(PID.TID 0000.0001)                 6.565369951034003E+10,      /* J = 16 */
(PID.TID 0000.0001)                 6.912896596594559E+10,      /* J = 17 */
(PID.TID 0000.0001)                 7.243769468755632E+10,      /* J = 18 */
(PID.TID 0000.0001)                 7.557191465787256E+10,      /* J = 19 */
(PID.TID 0000.0001)                 7.852407526645966E+10,      /* J = 20 */
(PID.TID 0000.0001)                 8.128706449983365E+10,      /* J = 21 */
(PID.TID 0000.0001)                 8.385422607492096E+10,      /* J = 22 */
(PID.TID 0000.0001)                 8.621937547463148E+10,      /* J = 23 */
(PID.TID 0000.0001)                 8.837681484689812E+10,      /* J = 24 */
(PID.TID 0000.0001)                 9.032134673130376E+10,      /* J = 25 */
(PID.TID 0000.0001)                 9.204828658021815E+10,      /* J = 26 */
(PID.TID 0000.0001)                 9.355347404428317E+10,      /* J = 27 */
(PID.TID 0000.0001)                 9.483328299505896E+10,      /* J = 28 */
(PID.TID 0000.0001)                 9.588463026068500E+10,      /* J = 29 */
(PID.TID 0000.0001)                 9.670498305351135E+10,      /* J = 30 */
(PID.TID 0000.0001)                 9.729236507180571E+10,      /* J = 31 */
(PID.TID 0000.0001)                 9.764536126083739E+10,      /* J = 32 */
(PID.TID 0000.0001)                 9.776312122186816E+10,      /* J = 33 */
(PID.TID 0000.0001)                 9.764536126083739E+10,      /* J = 34 */
(PID.TID 0000.0001)                 9.729236507180571E+10,      /* J = 35 */
(PID.TID 0000.0001)                 9.670498305351135E+10,      /* J = 36 */
(PID.TID 0000.0001)                 9.588463026068500E+10,      /* J = 37 */
(PID.TID 0000.0001)                 9.483328299505896E+10,      /* J = 38 */
(PID.TID 0000.0001)                 9.355347404428317E+10,      /* J = 39 */
(PID.TID 0000.0001)                 9.204828658021815E+10,      /* J = 40 */
(PID.TID 0000.0001)                 9.032134673130376E+10,      /* J = 41 */
(PID.TID 0000.0001)                 8.837681484689812E+10,      /* J = 42 */
(PID.TID 0000.0001)                 8.621937547463148E+10,      /* J = 43 */
(PID.TID 0000.0001)                 8.385422607492096E+10,      /* J = 44 */
(PID.TID 0000.0001)                 8.128706449983365E+10,      /* J = 45 */
(PID.TID 0000.0001)                 7.852407526645966E+10,      /* J = 46 */
(PID.TID 0000.0001)                 7.557191465787256E+10,      /* J = 47 */
(PID.TID 0000.0001)                 7.243769468755632E+10,      /* J = 48 */
(PID.TID 0000.0001)                 6.912896596594559E+10,      /* J = 49 */
(PID.TID 0000.0001)                 6.565369951034003E+10,      /* J = 50 */
(PID.TID 0000.0001)                 6.202026754202965E+10,      /* J = 51 */
(PID.TID 0000.0001)                 5.823742331687641E+10,      /* J = 52 */
(PID.TID 0000.0001)                 5.431428003795675E+10,      /* J = 53 */
(PID.TID 0000.0001)                 5.026028890105701E+10,      /* J = 54 */
(PID.TID 0000.0001)                 4.608521632591324E+10,      /* J = 55 */
(PID.TID 0000.0001)                 4.179912042805190E+10,      /* J = 56 */
(PID.TID 0000.0001)                 3.741232678790870E+10,      /* J = 57 */
(PID.TID 0000.0001)                 3.293540357560110E+10,      /* J = 58 */
(PID.TID 0000.0001)                 2.837913609127881E+10,      /* J = 59 */
(PID.TID 0000.0001)                 2.375450078239423E+10,      /* J = 60 */
(PID.TID 0000.0001)                 1.907263880047594E+10,      /* J = 61 */
(PID.TID 0000.0001)                 1.434482916112175E+10,      /* J = 62 */
(PID.TID 0000.0001)                 9.582461571859739E+09,      /* J = 63 */
(PID.TID 0000.0001)                 4.797008993346594E+09       /* J = 64 */
(PID.TID 0000.0001)     ;
(PID.TID 0000.0001) globalArea = /* Integrated horizontal Area (m^2) */
(PID.TID 0000.0001)                 3.303322488638320E+14
(PID.TID 0000.0001)     ;
(PID.TID 0000.0001) // =======================================================
(PID.TID 0000.0001) // End of Model config. summary
(PID.TID 0000.0001) // =======================================================
(PID.TID 0000.0001) 
(PID.TID 0000.0001) == Packages configuration : Check & print summary ==
(PID.TID 0000.0001) 
(PID.TID 0000.0001) GGL90_CHECK: #define ALLOW_GGL90
(PID.TID 0000.0001) GGL90_CHECK: Some form of convection has been enabled
(PID.TID 0000.0001) GMREDI_CHECK: #define GMREDI
(PID.TID 0000.0001) GM_AdvForm =     /* if FALSE => use SkewFlux Form */
(PID.TID 0000.0001)                   F
(PID.TID 0000.0001)     ;
(PID.TID 0000.0001) GM_InMomAsStress = /* if TRUE => apply as Eddy Stress */
(PID.TID 0000.0001)                   F
(PID.TID 0000.0001)     ;
(PID.TID 0000.0001) GM_AdvSeparate = /* Calc Bolus & Euler Adv. separately */
(PID.TID 0000.0001)                   F
(PID.TID 0000.0001)     ;
(PID.TID 0000.0001) GM_ExtraDiag =   /* Tensor Extra Diag (line 1&2) non 0 */
(PID.TID 0000.0001)                   F
(PID.TID 0000.0001)     ;
(PID.TID 0000.0001) GM_isopycK =    /* Background Isopyc. Diffusivity [m^2/s] */
(PID.TID 0000.0001)                 1.000000000000000E+03
(PID.TID 0000.0001)     ;
(PID.TID 0000.0001) GM_skewflx*K =  /* Background GM_SkewFlx Diffusivity [m^2/s] */
(PID.TID 0000.0001)                 1.000000000000000E+03
(PID.TID 0000.0001)     ;
(PID.TID 0000.0001) GM_advec*K =    /* Backg. GM-Advec(=Bolus) Diffusivity [m^2/s]*/
(PID.TID 0000.0001)                 0.000000000000000E+00
(PID.TID 0000.0001)     ;
(PID.TID 0000.0001) GM_Kmin_horiz = /* Minimum Horizontal Diffusivity [m^2/s] */
(PID.TID 0000.0001)                 1.000000000000000E+02
(PID.TID 0000.0001)     ;
(PID.TID 0000.0001) GM_Visbeck_alpha = /* Visbeck alpha coeff. [-] */
(PID.TID 0000.0001)                 0.000000000000000E+00
(PID.TID 0000.0001)     ;
(PID.TID 0000.0001) GM_Small_Number =  /* epsilon used in slope calc */
(PID.TID 0000.0001)                 9.999999999999999E-21
(PID.TID 0000.0001)     ;
(PID.TID 0000.0001) GM_slopeSqCutoff = /* Slope^2 cut-off value */
(PID.TID 0000.0001)                 1.000000000000000E+48
(PID.TID 0000.0001)     ;
(PID.TID 0000.0001) GM_taper_scheme =  /* Type of Tapering/Clipping scheme */
(PID.TID 0000.0001)               'gkw91                                   '
(PID.TID 0000.0001)     ;
(PID.TID 0000.0001) GM_maxSlope =  /* Maximum Slope (Tapering/Clipping) */
(PID.TID 0000.0001)                 1.000000000000000E-02
(PID.TID 0000.0001)     ;
(PID.TID 0000.0001) GM_facTrL2dz = /* Minimum Trans.Layer Thick. (factor of dz) */
(PID.TID 0000.0001)                 1.000000000000000E+00
(PID.TID 0000.0001)     ;
(PID.TID 0000.0001) GM_facTrL2ML = /* Max.Trans.Layer Thick. (factor of MxL Depth)*/
(PID.TID 0000.0001)                 5.000000000000000E+00
(PID.TID 0000.0001)     ;
(PID.TID 0000.0001) GM_maxTransLay = /* Maximum Transition Layer Thickness [m] */
(PID.TID 0000.0001)                 5.000000000000000E+02
(PID.TID 0000.0001)     ;
(PID.TID 0000.0001) GM_UseBVP = /* if TRUE => use bvp a la Ferrari et al. (2010) */
(PID.TID 0000.0001)                   F
(PID.TID 0000.0001)     ;
(PID.TID 0000.0001) GM_BVP_ModeNumber = /* Vertical mode number for BVP wave speed */
(PID.TID 0000.0001)                       1
(PID.TID 0000.0001)     ;
(PID.TID 0000.0001) GM_BVP_cMin = /* Minimum wave speed for BVP [m/s] */
(PID.TID 0000.0001)                 1.000000000000000E-01
(PID.TID 0000.0001)     ;
(PID.TID 0000.0001) GM_useSubMeso = /* if TRUE => use Sub-Meso param. (B.Fox-Kemper) */
(PID.TID 0000.0001)                   F
(PID.TID 0000.0001)     ;
(PID.TID 0000.0001) subMeso_Ceff = /* efficiency coeff. of Mixed-Layer Eddies [-] */
(PID.TID 0000.0001)                 7.000000000000001E-02
(PID.TID 0000.0001)     ;
(PID.TID 0000.0001) subMeso_invTau = /* inverse of Sub-Meso mixing time-scale [/s] */
(PID.TID 0000.0001)                 2.000000000000000E-06
(PID.TID 0000.0001)     ;
(PID.TID 0000.0001) subMeso_LfMin = /* minimum length-scale "Lf" [m] */
(PID.TID 0000.0001)                 1.000000000000000E+03
(PID.TID 0000.0001)     ;
(PID.TID 0000.0001) subMeso_Lmax = /* maximum grid-scale length [m] */
(PID.TID 0000.0001)                 1.100000000000000E+05
(PID.TID 0000.0001)     ;
(PID.TID 0000.0001) EXF_CHECK: #define ALLOW_EXF
(PID.TID 0000.0001) PTRACERS_CHECK: #define ALLOW_PTRACERS
(PID.TID 0000.0001) // ===================================
(PID.TID 0000.0001) // PTRACERS parameters
(PID.TID 0000.0001) // ===================================
(PID.TID 0000.0001) PTRACERS_numInUse = /* number of tracers */
(PID.TID 0000.0001)                       5
(PID.TID 0000.0001)     ;
(PID.TID 0000.0001) PTRACERS_Iter0 = /* timestep number when tracers are initialized */
(PID.TID 0000.0001)                       0
(PID.TID 0000.0001)     ;
(PID.TID 0000.0001) PTRACERS_startAllTrc =/* all tracers start @ startTime */
(PID.TID 0000.0001)                   T
(PID.TID 0000.0001)     ;
(PID.TID 0000.0001) PTRACERS_doAB_onGpTr =/* apply AB on Tendencies (rather than on Tracers) */
(PID.TID 0000.0001)                   T
(PID.TID 0000.0001)     ;
(PID.TID 0000.0001) PTRACERS_addSrelax2EmP =/* add Salt relaxation to EmP */
(PID.TID 0000.0001)                   F
(PID.TID 0000.0001)     ;
(PID.TID 0000.0001) PTRACERS_dTLev =   /* Ptracer timestep ( s ) */
(PID.TID 0000.0001)    15 @  4.320000000000000E+04              /* K =  1: 15 */
(PID.TID 0000.0001)     ;
(PID.TID 0000.0001) PTRACERS_monitorFreq = /* Frequency^-1 for monitor output (s) */
(PID.TID 0000.0001)                 1.000000000000000E+00
(PID.TID 0000.0001)     ;
(PID.TID 0000.0001) PTRACERS_dumpFreq = /* Frequency^-1 for snapshot output (s) */
(PID.TID 0000.0001)                 2.160000000000000E+05
(PID.TID 0000.0001)     ;
(PID.TID 0000.0001) PTRACERS_taveFreq = /* Frequency^-1 for time-Aver. output (s) */
(PID.TID 0000.0001)                 2.160000000000000E+05
(PID.TID 0000.0001)     ;
(PID.TID 0000.0001) PTRACERS_useRecords = /* all tracers in 1 file */
(PID.TID 0000.0001)                   F
(PID.TID 0000.0001)     ;
(PID.TID 0000.0001) PTRACERS_timeave_mnc = /* use MNC for Tave output */
(PID.TID 0000.0001)                   F
(PID.TID 0000.0001)     ;
(PID.TID 0000.0001) PTRACERS_snapshot_mnc = /* use MNC for snapshot output */
(PID.TID 0000.0001)                   F
(PID.TID 0000.0001)     ;
(PID.TID 0000.0001) PTRACERS_pickup_write_mnc = /* use MNC for writing pickups */
(PID.TID 0000.0001)                   F
(PID.TID 0000.0001)     ;
(PID.TID 0000.0001) PTRACERS_pickup_read_mnc = /* use MNC for reading pickups */
(PID.TID 0000.0001)                   F
(PID.TID 0000.0001)     ;
(PID.TID 0000.0001)  -----------------------------------
(PID.TID 0000.0001)  tracer number :    1
(PID.TID 0000.0001) PTRACERS_names = /* Tracer short name */
(PID.TID 0000.0001)               'DIC'
(PID.TID 0000.0001)     ;
(PID.TID 0000.0001) PTRACERS_long_names = /* Tracer long name */
(PID.TID 0000.0001)               'Dissolved Inorganic Carbon (DIC) [mol C/m^3]'
(PID.TID 0000.0001)     ;
(PID.TID 0000.0001) PTRACERS_ioLabel = /* tracer IO Label */
(PID.TID 0000.0001)               '01'
(PID.TID 0000.0001)     ;
(PID.TID 0000.0001) PTRACERS_advScheme = /* Advection Scheme */
(PID.TID 0000.0001)                      77
(PID.TID 0000.0001)     ;
(PID.TID 0000.0001) PTRACERS_SOM_Advection = /* tracer uses SOM advection scheme */
(PID.TID 0000.0001)                   F
(PID.TID 0000.0001)     ;
(PID.TID 0000.0001) PTRACERS_ImplVertAdv = /* implicit vert. advection flag */
(PID.TID 0000.0001)                   F
(PID.TID 0000.0001)     ;
(PID.TID 0000.0001) PTRACERS_MultiDimAdv = /* tracer uses Multi-Dim advection */
(PID.TID 0000.0001)                   T
(PID.TID 0000.0001)     ;
(PID.TID 0000.0001) PTRACERS_AdamsBashGtr = /* apply AB on tracer tendency */
(PID.TID 0000.0001)                   F
(PID.TID 0000.0001)     ;
(PID.TID 0000.0001) PTRACERS_AdamsBash_Tr = /* apply AB on passive tracer */
(PID.TID 0000.0001)                   F
(PID.TID 0000.0001)     ;
(PID.TID 0000.0001) PTRACERS_diffKh = /* Laplacian Diffusivity */
(PID.TID 0000.0001)                 0.000000000000000E+00
(PID.TID 0000.0001)     ;
(PID.TID 0000.0001) PTRACERS_diffK4 = /* Biharmonic Diffusivity */
(PID.TID 0000.0001)                 0.000000000000000E+00
(PID.TID 0000.0001)     ;
(PID.TID 0000.0001) PTRACERS_diffKrNr = /* Vertical Diffusivity */
(PID.TID 0000.0001)    15 @  3.000000000000000E-05              /* K =  1: 15 */
(PID.TID 0000.0001)     ;
(PID.TID 0000.0001) PTRACERS_useGMRedi = /* apply GM-Redi */
(PID.TID 0000.0001)                   T
(PID.TID 0000.0001)     ;
(PID.TID 0000.0001) PTRACERS_useDWNSLP = /* apply DOWN-SLOPE Flow */
(PID.TID 0000.0001)                   F
(PID.TID 0000.0001)     ;
(PID.TID 0000.0001) PTRACERS_useKPP = /* apply KPP scheme */
(PID.TID 0000.0001)                   F
(PID.TID 0000.0001)     ;
(PID.TID 0000.0001) PTRACERS_ref = /* Reference vertical profile */
(PID.TID 0000.0001)                 2.028200000000000E+00,      /* K =  1 */
(PID.TID 0000.0001)                 2.060900000000000E+00,      /* K =  2 */
(PID.TID 0000.0001)                 2.120600000000000E+00,      /* K =  3 */
(PID.TID 0000.0001)                 2.158100000000000E+00,      /* K =  4 */
(PID.TID 0000.0001)                 2.190400000000000E+00,      /* K =  5 */
(PID.TID 0000.0001)                 2.218800000000000E+00,      /* K =  6 */
(PID.TID 0000.0001)                 2.247400000000000E+00,      /* K =  7 */
(PID.TID 0000.0001)                 2.269900000000000E+00,      /* K =  8 */
(PID.TID 0000.0001)                 2.279200000000000E+00,      /* K =  9 */
(PID.TID 0000.0001)                 2.281400000000000E+00,      /* K = 10 */
(PID.TID 0000.0001)                 2.281500000000000E+00,      /* K = 11 */
(PID.TID 0000.0001)                 2.280600000000000E+00,      /* K = 12 */
(PID.TID 0000.0001)                 2.280000000000000E+00,      /* K = 13 */
(PID.TID 0000.0001)                 2.276000000000000E+00,      /* K = 14 */
(PID.TID 0000.0001)                 2.275800000000000E+00       /* K = 15 */
(PID.TID 0000.0001)     ;
(PID.TID 0000.0001) PTRACERS_EvPrRn =/* tracer conc. in Evap. & Rain */
(PID.TID 0000.0001)                 0.000000000000000E+00
(PID.TID 0000.0001)     ;
(PID.TID 0000.0001)  -----------------------------------
(PID.TID 0000.0001)  tracer number :    2
(PID.TID 0000.0001) PTRACERS_names = /* Tracer short name */
(PID.TID 0000.0001)               'Alk'
(PID.TID 0000.0001)     ;
(PID.TID 0000.0001) PTRACERS_long_names = /* Tracer long name */
(PID.TID 0000.0001)               'Alkalinity (Alk) [mol eq/m^3]'
(PID.TID 0000.0001)     ;
(PID.TID 0000.0001) PTRACERS_ioLabel = /* tracer IO Label */
(PID.TID 0000.0001)               '02'
(PID.TID 0000.0001)     ;
(PID.TID 0000.0001) PTRACERS_advScheme = /* Advection Scheme */
(PID.TID 0000.0001)                      77
(PID.TID 0000.0001)     ;
(PID.TID 0000.0001) PTRACERS_SOM_Advection = /* tracer uses SOM advection scheme */
(PID.TID 0000.0001)                   F
(PID.TID 0000.0001)     ;
(PID.TID 0000.0001) PTRACERS_ImplVertAdv = /* implicit vert. advection flag */
(PID.TID 0000.0001)                   F
(PID.TID 0000.0001)     ;
(PID.TID 0000.0001) PTRACERS_MultiDimAdv = /* tracer uses Multi-Dim advection */
(PID.TID 0000.0001)                   T
(PID.TID 0000.0001)     ;
(PID.TID 0000.0001) PTRACERS_AdamsBashGtr = /* apply AB on tracer tendency */
(PID.TID 0000.0001)                   F
(PID.TID 0000.0001)     ;
(PID.TID 0000.0001) PTRACERS_AdamsBash_Tr = /* apply AB on passive tracer */
(PID.TID 0000.0001)                   F
(PID.TID 0000.0001)     ;
(PID.TID 0000.0001) PTRACERS_diffKh = /* Laplacian Diffusivity */
(PID.TID 0000.0001)                 0.000000000000000E+00
(PID.TID 0000.0001)     ;
(PID.TID 0000.0001) PTRACERS_diffK4 = /* Biharmonic Diffusivity */
(PID.TID 0000.0001)                 0.000000000000000E+00
(PID.TID 0000.0001)     ;
(PID.TID 0000.0001) PTRACERS_diffKrNr = /* Vertical Diffusivity */
(PID.TID 0000.0001)    15 @  3.000000000000000E-05              /* K =  1: 15 */
(PID.TID 0000.0001)     ;
(PID.TID 0000.0001) PTRACERS_useGMRedi = /* apply GM-Redi */
(PID.TID 0000.0001)                   T
(PID.TID 0000.0001)     ;
(PID.TID 0000.0001) PTRACERS_useDWNSLP = /* apply DOWN-SLOPE Flow */
(PID.TID 0000.0001)                   F
(PID.TID 0000.0001)     ;
(PID.TID 0000.0001) PTRACERS_useKPP = /* apply KPP scheme */
(PID.TID 0000.0001)                   F
(PID.TID 0000.0001)     ;
(PID.TID 0000.0001) PTRACERS_ref = /* Reference vertical profile */
(PID.TID 0000.0001)                 2.308600000000000E+00,      /* K =  1 */
(PID.TID 0000.0001)                 2.314900000000000E+00,      /* K =  2 */
(PID.TID 0000.0001)                 2.316400000000000E+00,      /* K =  3 */
(PID.TID 0000.0001)                 2.311200000000000E+00,      /* K =  4 */
(PID.TID 0000.0001)                 2.309800000000000E+00,      /* K =  5 */
(PID.TID 0000.0001)                 2.316000000000000E+00,      /* K =  6 */
(PID.TID 0000.0001)                 2.331300000000000E+00,      /* K =  7 */
(PID.TID 0000.0001)                 2.351700000000000E+00,      /* K =  8 */
(PID.TID 0000.0001)                 2.366700000000000E+00,      /* K =  9 */
(PID.TID 0000.0001)                 2.376100000000000E+00,      /* K = 10 */
(PID.TID 0000.0001)                 2.383200000000000E+00,      /* K = 11 */
(PID.TID 0000.0001)                 2.386200000000000E+00,      /* K = 12 */
(PID.TID 0000.0001)                 2.388100000000000E+00,      /* K = 13 */
(PID.TID 0000.0001)                 2.386300000000000E+00,      /* K = 14 */
(PID.TID 0000.0001)                 2.386700000000000E+00       /* K = 15 */
(PID.TID 0000.0001)     ;
(PID.TID 0000.0001) PTRACERS_EvPrRn =/* tracer conc. in Evap. & Rain */
(PID.TID 0000.0001)                 0.000000000000000E+00
(PID.TID 0000.0001)     ;
(PID.TID 0000.0001)  -----------------------------------
(PID.TID 0000.0001)  tracer number :    3
(PID.TID 0000.0001) PTRACERS_names = /* Tracer short name */
(PID.TID 0000.0001)               'PO4'
(PID.TID 0000.0001)     ;
(PID.TID 0000.0001) PTRACERS_long_names = /* Tracer long name */
(PID.TID 0000.0001)               'Phosphate (PO4) [mol P/m^3]'
(PID.TID 0000.0001)     ;
(PID.TID 0000.0001) PTRACERS_ioLabel = /* tracer IO Label */
(PID.TID 0000.0001)               '03'
(PID.TID 0000.0001)     ;
(PID.TID 0000.0001) PTRACERS_advScheme = /* Advection Scheme */
(PID.TID 0000.0001)                      77
(PID.TID 0000.0001)     ;
(PID.TID 0000.0001) PTRACERS_SOM_Advection = /* tracer uses SOM advection scheme */
(PID.TID 0000.0001)                   F
(PID.TID 0000.0001)     ;
(PID.TID 0000.0001) PTRACERS_ImplVertAdv = /* implicit vert. advection flag */
(PID.TID 0000.0001)                   F
(PID.TID 0000.0001)     ;
(PID.TID 0000.0001) PTRACERS_MultiDimAdv = /* tracer uses Multi-Dim advection */
(PID.TID 0000.0001)                   T
(PID.TID 0000.0001)     ;
(PID.TID 0000.0001) PTRACERS_AdamsBashGtr = /* apply AB on tracer tendency */
(PID.TID 0000.0001)                   F
(PID.TID 0000.0001)     ;
(PID.TID 0000.0001) PTRACERS_AdamsBash_Tr = /* apply AB on passive tracer */
(PID.TID 0000.0001)                   F
(PID.TID 0000.0001)     ;
(PID.TID 0000.0001) PTRACERS_diffKh = /* Laplacian Diffusivity */
(PID.TID 0000.0001)                 0.000000000000000E+00
(PID.TID 0000.0001)     ;
(PID.TID 0000.0001) PTRACERS_diffK4 = /* Biharmonic Diffusivity */
(PID.TID 0000.0001)                 0.000000000000000E+00
(PID.TID 0000.0001)     ;
(PID.TID 0000.0001) PTRACERS_diffKrNr = /* Vertical Diffusivity */
(PID.TID 0000.0001)    15 @  3.000000000000000E-05              /* K =  1: 15 */
(PID.TID 0000.0001)     ;
(PID.TID 0000.0001) PTRACERS_useGMRedi = /* apply GM-Redi */
(PID.TID 0000.0001)                   T
(PID.TID 0000.0001)     ;
(PID.TID 0000.0001) PTRACERS_useDWNSLP = /* apply DOWN-SLOPE Flow */
(PID.TID 0000.0001)                   F
(PID.TID 0000.0001)     ;
(PID.TID 0000.0001) PTRACERS_useKPP = /* apply KPP scheme */
(PID.TID 0000.0001)                   F
(PID.TID 0000.0001)     ;
(PID.TID 0000.0001) PTRACERS_ref = /* Reference vertical profile */
(PID.TID 0000.0001)                 5.438000000000000E-04,      /* K =  1 */
(PID.TID 0000.0001)                 7.821000000000000E-04,      /* K =  2 */
(PID.TID 0000.0001)                 1.133500000000000E-03,      /* K =  3 */
(PID.TID 0000.0001)                 1.491300000000000E-03,      /* K =  4 */
(PID.TID 0000.0001)                 1.860600000000000E-03,      /* K =  5 */
(PID.TID 0000.0001)                 2.198600000000000E-03,      /* K =  6 */
(PID.TID 0000.0001)                 2.396600000000000E-03,      /* K =  7 */
(PID.TID 0000.0001)                 2.418700000000000E-03,      /* K =  8 */
(PID.TID 0000.0001)                 2.404600000000000E-03,      /* K =  9 */
(PID.TID 0000.0001)                 2.329100000000000E-03,      /* K = 10 */
(PID.TID 0000.0001)                 2.292200000000000E-03,      /* K = 11 */
(PID.TID 0000.0001)                 2.288600000000000E-03,      /* K = 12 */
(PID.TID 0000.0001)                 2.260800000000000E-03,      /* K = 13 */
(PID.TID 0000.0001)                 2.235600000000000E-03,      /* K = 14 */
(PID.TID 0000.0001)                 2.229600000000000E-03       /* K = 15 */
(PID.TID 0000.0001)     ;
(PID.TID 0000.0001) PTRACERS_EvPrRn =/* tracer conc. in Evap. & Rain */
(PID.TID 0000.0001)                 1.234567000000000E+05
(PID.TID 0000.0001)     ;
(PID.TID 0000.0001)  -----------------------------------
(PID.TID 0000.0001)  tracer number :    4
(PID.TID 0000.0001) PTRACERS_names = /* Tracer short name */
(PID.TID 0000.0001)               'DOP'
(PID.TID 0000.0001)     ;
(PID.TID 0000.0001) PTRACERS_long_names = /* Tracer long name */
(PID.TID 0000.0001)               'Dissolved Organic Phosphorus (DOP) [mol P/m^3]'
(PID.TID 0000.0001)     ;
(PID.TID 0000.0001) PTRACERS_ioLabel = /* tracer IO Label */
(PID.TID 0000.0001)               '04'
(PID.TID 0000.0001)     ;
(PID.TID 0000.0001) PTRACERS_advScheme = /* Advection Scheme */
(PID.TID 0000.0001)                      77
(PID.TID 0000.0001)     ;
(PID.TID 0000.0001) PTRACERS_SOM_Advection = /* tracer uses SOM advection scheme */
(PID.TID 0000.0001)                   F
(PID.TID 0000.0001)     ;
(PID.TID 0000.0001) PTRACERS_ImplVertAdv = /* implicit vert. advection flag */
(PID.TID 0000.0001)                   F
(PID.TID 0000.0001)     ;
(PID.TID 0000.0001) PTRACERS_MultiDimAdv = /* tracer uses Multi-Dim advection */
(PID.TID 0000.0001)                   T
(PID.TID 0000.0001)     ;
(PID.TID 0000.0001) PTRACERS_AdamsBashGtr = /* apply AB on tracer tendency */
(PID.TID 0000.0001)                   F
(PID.TID 0000.0001)     ;
(PID.TID 0000.0001) PTRACERS_AdamsBash_Tr = /* apply AB on passive tracer */
(PID.TID 0000.0001)                   F
(PID.TID 0000.0001)     ;
(PID.TID 0000.0001) PTRACERS_diffKh = /* Laplacian Diffusivity */
(PID.TID 0000.0001)                 0.000000000000000E+00
(PID.TID 0000.0001)     ;
(PID.TID 0000.0001) PTRACERS_diffK4 = /* Biharmonic Diffusivity */
(PID.TID 0000.0001)                 0.000000000000000E+00
(PID.TID 0000.0001)     ;
(PID.TID 0000.0001) PTRACERS_diffKrNr = /* Vertical Diffusivity */
(PID.TID 0000.0001)    15 @  3.000000000000000E-05              /* K =  1: 15 */
(PID.TID 0000.0001)     ;
(PID.TID 0000.0001) PTRACERS_useGMRedi = /* apply GM-Redi */
(PID.TID 0000.0001)                   T
(PID.TID 0000.0001)     ;
(PID.TID 0000.0001) PTRACERS_useDWNSLP = /* apply DOWN-SLOPE Flow */
(PID.TID 0000.0001)                   F
(PID.TID 0000.0001)     ;
(PID.TID 0000.0001) PTRACERS_useKPP = /* apply KPP scheme */
(PID.TID 0000.0001)                   F
(PID.TID 0000.0001)     ;
(PID.TID 0000.0001) PTRACERS_ref = /* Reference vertical profile */
(PID.TID 0000.0001)    15 @  0.000000000000000E+00              /* K =  1: 15 */
(PID.TID 0000.0001)     ;
(PID.TID 0000.0001) PTRACERS_EvPrRn =/* tracer conc. in Evap. & Rain */
(PID.TID 0000.0001)                 1.234567000000000E+05
(PID.TID 0000.0001)     ;
(PID.TID 0000.0001)  -----------------------------------
(PID.TID 0000.0001)  tracer number :    5
(PID.TID 0000.0001) PTRACERS_names = /* Tracer short name */
(PID.TID 0000.0001)               'O2'
(PID.TID 0000.0001)     ;
(PID.TID 0000.0001) PTRACERS_long_names = /* Tracer long name */
(PID.TID 0000.0001)               'Dissolved Oxygen (O2) [mol O/m^3]'
(PID.TID 0000.0001)     ;
(PID.TID 0000.0001) PTRACERS_ioLabel = /* tracer IO Label */
(PID.TID 0000.0001)               '05'
(PID.TID 0000.0001)     ;
(PID.TID 0000.0001) PTRACERS_advScheme = /* Advection Scheme */
(PID.TID 0000.0001)                      77
(PID.TID 0000.0001)     ;
(PID.TID 0000.0001) PTRACERS_SOM_Advection = /* tracer uses SOM advection scheme */
(PID.TID 0000.0001)                   F
(PID.TID 0000.0001)     ;
(PID.TID 0000.0001) PTRACERS_ImplVertAdv = /* implicit vert. advection flag */
(PID.TID 0000.0001)                   F
(PID.TID 0000.0001)     ;
(PID.TID 0000.0001) PTRACERS_MultiDimAdv = /* tracer uses Multi-Dim advection */
(PID.TID 0000.0001)                   T
(PID.TID 0000.0001)     ;
(PID.TID 0000.0001) PTRACERS_AdamsBashGtr = /* apply AB on tracer tendency */
(PID.TID 0000.0001)                   F
(PID.TID 0000.0001)     ;
(PID.TID 0000.0001) PTRACERS_AdamsBash_Tr = /* apply AB on passive tracer */
(PID.TID 0000.0001)                   F
(PID.TID 0000.0001)     ;
(PID.TID 0000.0001) PTRACERS_diffKh = /* Laplacian Diffusivity */
(PID.TID 0000.0001)                 0.000000000000000E+00
(PID.TID 0000.0001)     ;
(PID.TID 0000.0001) PTRACERS_diffK4 = /* Biharmonic Diffusivity */
(PID.TID 0000.0001)                 0.000000000000000E+00
(PID.TID 0000.0001)     ;
(PID.TID 0000.0001) PTRACERS_diffKrNr = /* Vertical Diffusivity */
(PID.TID 0000.0001)    15 @  3.000000000000000E-05              /* K =  1: 15 */
(PID.TID 0000.0001)     ;
(PID.TID 0000.0001) PTRACERS_useGMRedi = /* apply GM-Redi */
(PID.TID 0000.0001)                   T
(PID.TID 0000.0001)     ;
(PID.TID 0000.0001) PTRACERS_useDWNSLP = /* apply DOWN-SLOPE Flow */
(PID.TID 0000.0001)                   F
(PID.TID 0000.0001)     ;
(PID.TID 0000.0001) PTRACERS_useKPP = /* apply KPP scheme */
(PID.TID 0000.0001)                   F
(PID.TID 0000.0001)     ;
(PID.TID 0000.0001) PTRACERS_ref = /* Reference vertical profile */
(PID.TID 0000.0001)                 2.457000000000000E-01,      /* K =  1 */
(PID.TID 0000.0001)                 2.336000000000000E-01,      /* K =  2 */
(PID.TID 0000.0001)                 1.975000000000000E-01,      /* K =  3 */
(PID.TID 0000.0001)                 1.729000000000000E-01,      /* K =  4 */
(PID.TID 0000.0001)                 1.591000000000000E-01,      /* K =  5 */
(PID.TID 0000.0001)                 1.503000000000000E-01,      /* K =  6 */
(PID.TID 0000.0001)                 1.424000000000000E-01,      /* K =  7 */
(PID.TID 0000.0001)                 1.445000000000000E-01,      /* K =  8 */
(PID.TID 0000.0001)                 1.549000000000000E-01,      /* K =  9 */
(PID.TID 0000.0001)                 1.661000000000000E-01,      /* K = 10 */
(PID.TID 0000.0001)                 1.774000000000000E-01,      /* K = 11 */
(PID.TID 0000.0001)                 1.863000000000000E-01,      /* K = 12 */
(PID.TID 0000.0001)                 1.925000000000000E-01,      /* K = 13 */
(PID.TID 0000.0001)                 2.021000000000000E-01,      /* K = 14 */
(PID.TID 0000.0001)                 2.051000000000000E-01       /* K = 15 */
(PID.TID 0000.0001)     ;
(PID.TID 0000.0001) PTRACERS_EvPrRn =/* tracer conc. in Evap. & Rain */
(PID.TID 0000.0001)                 1.234567000000000E+05
(PID.TID 0000.0001)     ;
(PID.TID 0000.0001)  -----------------------------------
(PID.TID 0000.0001) GCHEM_CHECK: #define ALLOW_GCHEM
(PID.TID 0000.0001) GAD_CHECK: #define ALLOW_GENERIC_ADVDIFF
(PID.TID 0000.0001) // =======================================================
(PID.TID 0000.0001) // Check Model config. (CONFIG_CHECK):
(PID.TID 0000.0001) // CONFIG_CHECK : Normal End
(PID.TID 0000.0001) // =======================================================
(PID.TID 0000.0001) 
(PID.TID 0000.0001)  MDS_READ_FIELD: opening global file: Uvel.0005184000
(PID.TID 0000.0001)  MDS_READ_FIELD: opening global file: Vvel.0005184000
(PID.TID 0000.0001)  MDS_READ_FIELD: opening global file: Theta.0005184000
(PID.TID 0000.0001)  MDS_READ_FIELD: opening global file: Salt.0005184000
(PID.TID 0000.0001)  MDS_READ_FIELD: opening global file: Eta.0005184000
(PID.TID 0000.0001) Start initial hydrostatic pressure computation
(PID.TID 0000.0001) Pressure is predetermined for buoyancyRelation OCEANIC
(PID.TID 0000.0001) 
(PID.TID 0000.0001)  write diagnostics summary to file ioUnit:      6
Iter.Nb:         0 ; Time(s):  0.0000000000000E+00
------------------------------------------------------------------------
2D/3D diagnostics: Number of lists:     1
------------------------------------------------------------------------
listId=    1 ; file name: surfDiag
 nFlds, nActive,       freq     &     phase        , nLev               
   10  |   10  |    172800.000000         0.000000 |   1
 levels:   1
 diag# | name   |   ipt  |  iMate | kLev|   count |   mate.C|           
    23 |ETAN    |      1 |      0 |   1 |       0 |
    24 |ETANSQ  |      2 |      0 |   1 |       0 |
    25 |DETADT2 |      3 |      0 |   1 |       0 |
    73 |PHIBOT  |      4 |      0 |   1 |       0 |
    74 |PHIBOTSQ|      5 |      0 |   1 |       0 |
   308 |DICTFLX |      6 |      0 |   1 |       0 |
   309 |DICOFLX |      7 |      0 |   1 |       0 |
   310 |DICCFLX |      8 |      0 |   1 |       0 |
   311 |DICPCO2 |      9 |      0 |   1 |       0 |
   312 |DICPHAV |     10 |      0 |   1 |       0 |
------------------------------------------------------------------------
Global & Regional Statistics diagnostics: Number of lists:     0
------------------------------------------------------------------------
(PID.TID 0000.0001)  MDS_READ_FIELD: opening global file: DIC.0005184000
(PID.TID 0000.0001)  MDS_READ_FIELD: opening global file: Alk.0005184000
(PID.TID 0000.0001)  MDS_READ_FIELD: opening global file: PO4.0005184000
(PID.TID 0000.0001)  MDS_READ_FIELD: opening global file: DOP.0005184000
(PID.TID 0000.0001)  MDS_READ_FIELD: opening global file: O2.0005184000
 DIC_SURFFORCING_INIT, it=         0 : Reading new data, i0,i1=   12    1
(PID.TID 0000.0001)  MDS_READ_FIELD: opening global file: sillev1.bin
(PID.TID 0000.0001)  MDS_READ_FIELD: opening global file: sillev1.bin
 QQ: pCO2 approximation method
 QQ first guess pH   8.1721270142743645        19.863307952880859        35.595417022705078        1.9654943943023682        1.7932390619534999E-004   4.2288308031857014E-003   2.3079438209533691     
 QQ: pCO2 approximation method
 QQ first guess pH   8.1444206831815293        17.787647247314453        34.775051116943359        1.9635703563690186        1.2285396223887801E-004   3.4407726489007473E-003   2.2587993144989014     
 QQ: pCO2 approximation method
 QQ first guess pH   8.0000000000000000        0.0000000000000000        0.0000000000000000        0.0000000000000000        0.0000000000000000        0.0000000000000000        0.0000000000000000     
 QQ: pCO2 approximation method
 QQ first guess pH   8.0000000000000000        0.0000000000000000        0.0000000000000000        0.0000000000000000        0.0000000000000000        0.0000000000000000        0.0000000000000000     
(PID.TID 0000.0001) // =======================================================
(PID.TID 0000.0001) // Model current state
(PID.TID 0000.0001) // =======================================================
(PID.TID 0000.0001) 
(PID.TID 0000.0001) // =======================================================
(PID.TID 0000.0001) // Begin MONITOR dynamic field statistics
(PID.TID 0000.0001) // =======================================================
(PID.TID 0000.0001) %MON time_tsnumber                =                     0
(PID.TID 0000.0001) %MON time_secondsf                =   0.0000000000000E+00
(PID.TID 0000.0001) %MON dynstat_eta_max              =   9.6649301052094E-01
(PID.TID 0000.0001) %MON dynstat_eta_min              =  -1.4782940149307E+00
(PID.TID 0000.0001) %MON dynstat_eta_mean             =   8.2173133355469E-11
(PID.TID 0000.0001) %MON dynstat_eta_sd               =   5.6496543245902E-01
(PID.TID 0000.0001) %MON dynstat_eta_del2             =   1.1653645959361E-03
(PID.TID 0000.0001) %MON dynstat_uvel_max             =   1.8991956114769E-01
(PID.TID 0000.0001) %MON dynstat_uvel_min             =  -2.3830120265484E-01
(PID.TID 0000.0001) %MON dynstat_uvel_mean            =   1.8631910434304E-03
(PID.TID 0000.0001) %MON dynstat_uvel_sd              =   1.3097544587911E-02
(PID.TID 0000.0001) %MON dynstat_uvel_del2            =   4.9141243639480E-05
(PID.TID 0000.0001) %MON dynstat_vvel_max             =   1.4902608096600E-01
(PID.TID 0000.0001) %MON dynstat_vvel_min             =  -2.1740870177746E-01
(PID.TID 0000.0001) %MON dynstat_vvel_mean            =  -1.6712179519139E-04
(PID.TID 0000.0001) %MON dynstat_vvel_sd              =   7.3032187183207E-03
(PID.TID 0000.0001) %MON dynstat_vvel_del2            =   3.8048381037259E-05
(PID.TID 0000.0001) %MON dynstat_wvel_max             =   5.2278893557483E-05
(PID.TID 0000.0001) %MON dynstat_wvel_min             =  -5.4363646963699E-05
(PID.TID 0000.0001) %MON dynstat_wvel_mean            =  -3.1461805796597E-23
(PID.TID 0000.0001) %MON dynstat_wvel_sd              =   2.6044092398924E-06
(PID.TID 0000.0001) %MON dynstat_wvel_del2            =   1.7768952245668E-08
(PID.TID 0000.0001) %MON dynstat_theta_max            =   3.0246498107910E+01
(PID.TID 0000.0001) %MON dynstat_theta_min            =  -1.9000000000000E+00
(PID.TID 0000.0001) %MON dynstat_theta_mean           =   3.8021328362316E+00
(PID.TID 0000.0001) %MON dynstat_theta_sd             =   4.5122358055243E+00
(PID.TID 0000.0001) %MON dynstat_theta_del2           =   2.5946266421759E-03
(PID.TID 0000.0001) %MON dynstat_salt_max             =   3.7556854248047E+01
(PID.TID 0000.0001) %MON dynstat_salt_min             =   3.1484590530396E+01
(PID.TID 0000.0001) %MON dynstat_salt_mean            =   3.4614647723372E+01
(PID.TID 0000.0001) %MON dynstat_salt_sd              =   3.1408724491432E-01
(PID.TID 0000.0001) %MON dynstat_salt_del2            =   4.0546884730967E-04
(PID.TID 0000.0001) %MON forcing_qnet_max             =   0.0000000000000E+00
(PID.TID 0000.0001) %MON forcing_qnet_min             =   0.0000000000000E+00
(PID.TID 0000.0001) %MON forcing_qnet_mean            =   0.0000000000000E+00
(PID.TID 0000.0001) %MON forcing_qnet_sd              =   0.0000000000000E+00
(PID.TID 0000.0001) %MON forcing_qnet_del2            =   0.0000000000000E+00
(PID.TID 0000.0001) %MON forcing_qsw_max              =   0.0000000000000E+00
(PID.TID 0000.0001) %MON forcing_qsw_min              =   0.0000000000000E+00
(PID.TID 0000.0001) %MON forcing_qsw_mean             =   0.0000000000000E+00
(PID.TID 0000.0001) %MON forcing_qsw_sd               =   0.0000000000000E+00
(PID.TID 0000.0001) %MON forcing_qsw_del2             =   0.0000000000000E+00
(PID.TID 0000.0001) %MON forcing_empmr_max            =   0.0000000000000E+00
(PID.TID 0000.0001) %MON forcing_empmr_min            =   0.0000000000000E+00
(PID.TID 0000.0001) %MON forcing_empmr_mean           =   0.0000000000000E+00
(PID.TID 0000.0001) %MON forcing_empmr_sd             =   0.0000000000000E+00
(PID.TID 0000.0001) %MON forcing_empmr_del2           =   0.0000000000000E+00
(PID.TID 0000.0001) %MON forcing_fu_max               =   0.0000000000000E+00
(PID.TID 0000.0001) %MON forcing_fu_min               =   0.0000000000000E+00
(PID.TID 0000.0001) %MON forcing_fu_mean              =   0.0000000000000E+00
(PID.TID 0000.0001) %MON forcing_fu_sd                =   0.0000000000000E+00
(PID.TID 0000.0001) %MON forcing_fu_del2              =   0.0000000000000E+00
(PID.TID 0000.0001) %MON forcing_fv_max               =   0.0000000000000E+00
(PID.TID 0000.0001) %MON forcing_fv_min               =   0.0000000000000E+00
(PID.TID 0000.0001) %MON forcing_fv_mean              =   0.0000000000000E+00
(PID.TID 0000.0001) %MON forcing_fv_sd                =   0.0000000000000E+00
(PID.TID 0000.0001) %MON forcing_fv_del2              =   0.0000000000000E+00
(PID.TID 0000.0001) %MON trAdv_CFL_u_max              =   0.0000000000000E+00
(PID.TID 0000.0001) %MON trAdv_CFL_v_max              =   0.0000000000000E+00
(PID.TID 0000.0001) %MON trAdv_CFL_w_max              =   0.0000000000000E+00
(PID.TID 0000.0001) %MON advcfl_uvel_max              =   3.3371225142180E-02
(PID.TID 0000.0001) %MON advcfl_vvel_max              =   3.0036639245503E-02
(PID.TID 0000.0001) %MON advcfl_wvel_max              =   1.2835231905157E-02
(PID.TID 0000.0001) %MON advcfl_W_hf_max              =   1.5402278286188E-02
(PID.TID 0000.0001) %MON pe_b_mean                    =   4.1138403908566E-04
(PID.TID 0000.0001) %MON ke_max                       =   3.1499048019696E-02
(PID.TID 0000.0001) %MON ke_mean                      =   1.0574476462810E-04
(PID.TID 0000.0001) %MON ke_vol                       =   1.2571476858570E+18
(PID.TID 0000.0001) %MON vort_r_min                   =  -9.2200320971920E-07
(PID.TID 0000.0001) %MON vort_r_max                   =   9.8870203226493E-07
(PID.TID 0000.0001) %MON vort_a_mean                  =  -2.4002453570026E-05
(PID.TID 0000.0001) %MON vort_a_sd                    =   7.3138176910932E-05
(PID.TID 0000.0001) %MON vort_p_mean                  =  -2.8585773838204E-05
(PID.TID 0000.0001) %MON vort_p_sd                    =   1.1453377537423E-04
(PID.TID 0000.0001) %MON surfExpan_theta_mean         =  -2.2011271573928E-07
(PID.TID 0000.0001) %MON surfExpan_salt_mean          =   2.1557167979197E-08
(PID.TID 0000.0001) // =======================================================
(PID.TID 0000.0001) // End MONITOR dynamic field statistics
(PID.TID 0000.0001) // =======================================================
(PID.TID 0000.0001) // =======================================================
(PID.TID 0000.0001) // Begin MONITOR ptracer field statistics
(PID.TID 0000.0001) // =======================================================
(PID.TID 0000.0001) %MON trcstat_ptracer01_max        =   2.4429509639740E+00
(PID.TID 0000.0001) %MON trcstat_ptracer01_min        =   1.6411768198013E+00
(PID.TID 0000.0001) %MON trcstat_ptracer01_mean       =   2.2619456455511E+00
(PID.TID 0000.0001) %MON trcstat_ptracer01_sd         =   1.0331286204117E-01
(PID.TID 0000.0001) %MON trcstat_ptracer01_del2       =   3.5366179702717E-05
(PID.TID 0000.0001) %MON trcstat_ptracer02_max        =   2.5617847442627E+00
(PID.TID 0000.0001) %MON trcstat_ptracer02_min        =   1.9500364065170E+00
(PID.TID 0000.0001) %MON trcstat_ptracer02_mean       =   2.3641949246227E+00
(PID.TID 0000.0001) %MON trcstat_ptracer02_sd         =   4.9629918284655E-02
(PID.TID 0000.0001) %MON trcstat_ptracer02_del2       =   2.3379348647141E-05
(PID.TID 0000.0001) %MON trcstat_ptracer03_max        =   3.2964255660772E-03
(PID.TID 0000.0001) %MON trcstat_ptracer03_min        =   4.8658221203368E-05
(PID.TID 0000.0001) %MON trcstat_ptracer03_mean       =   2.1265729799887E-03
(PID.TID 0000.0001) %MON trcstat_ptracer03_sd         =   6.9838206323707E-04
(PID.TID 0000.0001) %MON trcstat_ptracer03_del2       =   2.2273775187945E-07
(PID.TID 0000.0001) %MON trcstat_ptracer04_max        =   3.0026849708520E-04
(PID.TID 0000.0001) %MON trcstat_ptracer04_min        =  -1.8981224059189E-07
(PID.TID 0000.0001) %MON trcstat_ptracer04_mean       =   5.9486556791542E-06
(PID.TID 0000.0001) %MON trcstat_ptracer04_sd         =   2.6309645062685E-05
(PID.TID 0000.0001) %MON trcstat_ptracer04_del2       =   3.2481489514464E-08
(PID.TID 0000.0001) %MON trcstat_ptracer05_max        =   3.8399705290794E-01
(PID.TID 0000.0001) %MON trcstat_ptracer05_min        =   3.9748288691044E-03
(PID.TID 0000.0001) %MON trcstat_ptracer05_mean       =   1.6196386319883E-01
(PID.TID 0000.0001) %MON trcstat_ptracer05_sd         =   7.3415516707685E-02
(PID.TID 0000.0001) %MON trcstat_ptracer05_del2       =   3.0999411155864E-05
(PID.TID 0000.0001) // =======================================================
(PID.TID 0000.0001) // End MONITOR ptracers field statistics
(PID.TID 0000.0001) // =======================================================
(PID.TID 0000.0001)  EXF_INTERP_READ: opening file: lev_monthly_temp.bin
(PID.TID 0000.0001)  EXF_INTERP: file="lev_monthly_temp.bin", rec=    12 , x-Per,P.Sym=    T    T
(PID.TID 0000.0001)  S.edge (j=-1,0,1) : proc= 2.2 1.1 0.0, yIn=  -91.406250  -90.000000  -88.593750
(PID.TID 0000.0001)  N.edge (j=+0,+1,+2) proc= 0.0 1.1 2.2, yIn=   88.593750   90.000000   91.406250
(PID.TID 0000.0001)  EXF_INTERP_READ: opening file: lev_monthly_temp.bin
(PID.TID 0000.0001)  EXF_INTERP: file="lev_monthly_temp.bin", rec=     1 , x-Per,P.Sym=    T    T
(PID.TID 0000.0001)  S.edge (j=-1,0,1) : proc= 2.2 1.1 0.0, yIn=  -91.406250  -90.000000  -88.593750
(PID.TID 0000.0001)  N.edge (j=+0,+1,+2) proc= 0.0 1.1 2.2, yIn=   88.593750   90.000000   91.406250
(PID.TID 0000.0001)  EXF_INTERP_READ: opening file: lev_monthly_salt.bin
(PID.TID 0000.0001)  EXF_INTERP: file="lev_monthly_salt.bin", rec=    12 , x-Per,P.Sym=    T    T
(PID.TID 0000.0001)  S.edge (j=-1,0,1) : proc= 2.2 1.1 0.0, yIn=  -91.406250  -90.000000  -88.593750
(PID.TID 0000.0001)  N.edge (j=+0,+1,+2) proc= 0.0 1.1 2.2, yIn=   88.593750   90.000000   91.406250
(PID.TID 0000.0001)  EXF_INTERP_READ: opening file: lev_monthly_salt.bin
(PID.TID 0000.0001)  EXF_INTERP: file="lev_monthly_salt.bin", rec=     1 , x-Per,P.Sym=    T    T
(PID.TID 0000.0001)  S.edge (j=-1,0,1) : proc= 2.2 1.1 0.0, yIn=  -91.406250  -90.000000  -88.593750
(PID.TID 0000.0001)  N.edge (j=+0,+1,+2) proc= 0.0 1.1 2.2, yIn=   88.593750   90.000000   91.406250
(PID.TID 0000.0001)  EXF_INTERP_READ: opening file: tren_taux.bin
(PID.TID 0000.0001)  EXF_INTERP: file="tren_taux.bin", rec=    12 , x-Per,P.Sym=    T    T
(PID.TID 0000.0001)  S.edge (j=-1,0,1) : proc= 0.2 0.2 0.0, yIn=  -94.218750  -91.406250  -88.593750
(PID.TID 0000.0001)  N.edge (j=+0,+1,+2) proc= 0.0 0.2 0.2, yIn=   88.593750   91.406250   94.218750
(PID.TID 0000.0001)  EXF_INTERP_READ: opening file: tren_taux.bin
(PID.TID 0000.0001)  EXF_INTERP: file="tren_taux.bin", rec=     1 , x-Per,P.Sym=    T    T
(PID.TID 0000.0001)  S.edge (j=-1,0,1) : proc= 0.2 0.2 0.0, yIn=  -94.218750  -91.406250  -88.593750
(PID.TID 0000.0001)  N.edge (j=+0,+1,+2) proc= 0.0 0.2 0.2, yIn=   88.593750   91.406250   94.218750
(PID.TID 0000.0001)  EXF_INTERP_READ: opening file: tren_tauy.bin
(PID.TID 0000.0001)  EXF_INTERP: file="tren_tauy.bin", rec=    12 , x-Per,P.Sym=    T    T
(PID.TID 0000.0001)  S.edge (j=-1,0,1) : proc= 0.2 0.2 0.0, yIn=  -95.625000  -92.812500  -90.000000
(PID.TID 0000.0001)  N.edge (j=+0,+1,+2) proc= 0.0 0.0 0.2, yIn=   87.187500   90.000000   92.812500
(PID.TID 0000.0001)  EXF_INTERP_READ: opening file: tren_tauy.bin
(PID.TID 0000.0001)  EXF_INTERP: file="tren_tauy.bin", rec=     1 , x-Per,P.Sym=    T    T
(PID.TID 0000.0001)  S.edge (j=-1,0,1) : proc= 0.2 0.2 0.0, yIn=  -95.625000  -92.812500  -90.000000
(PID.TID 0000.0001)  N.edge (j=+0,+1,+2) proc= 0.0 0.0 0.2, yIn=   87.187500   90.000000   92.812500
(PID.TID 0000.0001)  EXF_INTERP_READ: opening file: shi_qnet.bin
(PID.TID 0000.0001)  EXF_INTERP: file="shi_qnet.bin", rec=    12 , x-Per,P.Sym=    T    T
(PID.TID 0000.0001)  S.edge (j=-1,0,1) : proc= 2.2 1.1 0.0, yIn=  -91.406250  -90.000000  -88.593750
(PID.TID 0000.0001)  N.edge (j=+0,+1,+2) proc= 0.0 1.1 2.2, yIn=   88.593750   90.000000   91.406250
(PID.TID 0000.0001)  EXF_INTERP_READ: opening file: shi_qnet.bin
(PID.TID 0000.0001)  EXF_INTERP: file="shi_qnet.bin", rec=     1 , x-Per,P.Sym=    T    T
(PID.TID 0000.0001)  S.edge (j=-1,0,1) : proc= 2.2 1.1 0.0, yIn=  -91.406250  -90.000000  -88.593750
(PID.TID 0000.0001)  N.edge (j=+0,+1,+2) proc= 0.0 1.1 2.2, yIn=   88.593750   90.000000   91.406250
(PID.TID 0000.0001)  EXF_INTERP_READ: opening file: shi_empmr_year.bin
(PID.TID 0000.0001)  EXF_INTERP: file="shi_empmr_year.bin", rec=    12 , x-Per,P.Sym=    T    T
(PID.TID 0000.0001)  S.edge (j=-1,0,1) : proc= 2.2 1.1 0.0, yIn=  -91.406250  -90.000000  -88.593750
(PID.TID 0000.0001)  N.edge (j=+0,+1,+2) proc= 0.0 1.1 2.2, yIn=   88.593750   90.000000   91.406250
(PID.TID 0000.0001)  EXF_INTERP_READ: opening file: shi_empmr_year.bin
(PID.TID 0000.0001)  EXF_INTERP: file="shi_empmr_year.bin", rec=     1 , x-Per,P.Sym=    T    T
(PID.TID 0000.0001)  S.edge (j=-1,0,1) : proc= 2.2 1.1 0.0, yIn=  -91.406250  -90.000000  -88.593750
(PID.TID 0000.0001)  N.edge (j=+0,+1,+2) proc= 0.0 1.1 2.2, yIn=   88.593750   90.000000   91.406250
(PID.TID 0000.0001) // =======================================================
(PID.TID 0000.0001) // Begin MONITOR EXF statistics
(PID.TID 0000.0001) // =======================================================
(PID.TID 0000.0001) %MON exf_tsnumber                 =                     0
(PID.TID 0000.0001) %MON exf_time_sec                 =   0.0000000000000E+00
(PID.TID 0000.0001) %MON exf_ustress_max              =   2.6956807682291E-01
(PID.TID 0000.0001) %MON exf_ustress_min              =  -1.6213355399668E-01
(PID.TID 0000.0001) %MON exf_ustress_mean             =   1.6908077142085E-02
(PID.TID 0000.0001) %MON exf_ustress_sd               =   8.8457584772466E-02
(PID.TID 0000.0001) %MON exf_ustress_del2             =   3.0376285150513E-04
(PID.TID 0000.0001) %MON exf_vstress_max              =   1.9458614569157E-01
(PID.TID 0000.0001) %MON exf_vstress_min              =  -1.6008960176259E-01
(PID.TID 0000.0001) %MON exf_vstress_mean             =  -6.3127896795317E-03
(PID.TID 0000.0001) %MON exf_vstress_sd               =   4.3337238756694E-02
(PID.TID 0000.0001) %MON exf_vstress_del2             =   2.5626788709130E-04
(PID.TID 0000.0001) %MON exf_hflux_max                =   4.5173381042480E+02
(PID.TID 0000.0001) %MON exf_hflux_min                =  -2.1320401000977E+02
(PID.TID 0000.0001) %MON exf_hflux_mean               =  -1.7651133920904E+01
(PID.TID 0000.0001) %MON exf_hflux_sd                 =   1.1600054643933E+02
(PID.TID 0000.0001) %MON exf_hflux_del2               =   5.3025611358166E-01
(PID.TID 0000.0001) %MON exf_sflux_max                =   6.6865915471226E-08
(PID.TID 0000.0001) %MON exf_sflux_min                =  -1.5018765964214E-07
(PID.TID 0000.0001) %MON exf_sflux_mean               =   7.7320599494535E-12
(PID.TID 0000.0001) %MON exf_sflux_sd                 =   2.3858729798697E-08
(PID.TID 0000.0001) %MON exf_sflux_del2               =   1.4236389607887E-10
(PID.TID 0000.0001) %MON exf_climsst_max              =   2.9559789657593E+01
(PID.TID 0000.0001) %MON exf_climsst_min              =  -1.9000000000000E+00
(PID.TID 0000.0001) %MON exf_climsst_mean             =   1.8309256268393E+01
(PID.TID 0000.0001) %MON exf_climsst_sd               =   9.3262020427301E+00
(PID.TID 0000.0001) %MON exf_climsst_del2             =   1.0580414654047E-02
(PID.TID 0000.0001) %MON exf_climsss_max              =   3.7455974578857E+01
(PID.TID 0000.0001) %MON exf_climsss_min              =   3.1649268150330E+01
(PID.TID 0000.0001) %MON exf_climsss_mean             =   3.4864781714253E+01
(PID.TID 0000.0001) %MON exf_climsss_sd               =   9.3622709836864E-01
(PID.TID 0000.0001) %MON exf_climsss_del2             =   2.7925304098692E-03
(PID.TID 0000.0001) // =======================================================
(PID.TID 0000.0001) // End MONITOR EXF statistics
(PID.TID 0000.0001) // =======================================================
 EXTERNAL_FIELDS_LOAD,         0 : iP,iLd,i0,i1=   12    0   12    1 ; Wght=  0.5000000000  0.5000000000
 EXTERNAL_FIELDS_LOAD, it=         0 : Reading new data, i0,i1=   12    1 (prev=   12    0 )
 DIC_FIELDS_LOAD,         0 : iP,iLd,i0,i1=   12    0   12    1 ; Wght=  0.5000000000  0.5000000000
 DIC_FIELDS_LOAD, it=         0 : Reading new data, i0,i1=   12    1 (prev=   12    0 )
(PID.TID 0000.0001)  MDS_READ_FIELD: opening global file: tren_speed.bin
(PID.TID 0000.0001)  MDS_READ_FIELD: opening global file: tren_speed.bin
(PID.TID 0000.0001)  MDS_READ_FIELD: opening global file: sillev1.bin
(PID.TID 0000.0001)  MDS_READ_FIELD: opening global file: sillev1.bin
(PID.TID 0000.0001)  MDS_READ_FIELD: opening global file: fice.bin
(PID.TID 0000.0001)  MDS_READ_FIELD: opening global file: fice.bin
(PID.TID 0000.0001) SOLVE_FOR_PRESSURE: putPmEinXvector =    F
 cg2d: Sum(rhs),rhsMax =  -2.86424988615863E-07  8.25314995497371E+00
(PID.TID 0000.0001)      cg2d_init_res =   3.83450717231333E-01
(PID.TID 0000.0001)      cg2d_iters(min,last) =      -1      25
(PID.TID 0000.0001)      cg2d_last_res =   8.07263894738770E-14
(PID.TID 0000.0001) // =======================================================
(PID.TID 0000.0001) // Begin MONITOR dynamic field statistics
(PID.TID 0000.0001) // =======================================================
(PID.TID 0000.0001) %MON time_tsnumber                =                     1
(PID.TID 0000.0001) %MON time_secondsf                =   4.3200000000000E+04
(PID.TID 0000.0001) %MON dynstat_eta_max              =   9.5912914857076E-01
(PID.TID 0000.0001) %MON dynstat_eta_min              =  -1.4611584206605E+00
(PID.TID 0000.0001) %MON dynstat_eta_mean             =   8.2367826540047E-11
(PID.TID 0000.0001) %MON dynstat_eta_sd               =   5.6362216257035E-01
(PID.TID 0000.0001) %MON dynstat_eta_del2             =   1.0708728133855E-03
(PID.TID 0000.0001) %MON dynstat_uvel_max             =   1.8982953860233E-01
(PID.TID 0000.0001) %MON dynstat_uvel_min             =  -2.3791989203426E-01
(PID.TID 0000.0001) %MON dynstat_uvel_mean            =   1.8615308657108E-03
(PID.TID 0000.0001) %MON dynstat_uvel_sd              =   1.3093110876387E-02
(PID.TID 0000.0001) %MON dynstat_uvel_del2            =   4.9260512361445E-05
(PID.TID 0000.0001) %MON dynstat_vvel_max             =   1.4684810811442E-01
(PID.TID 0000.0001) %MON dynstat_vvel_min             =  -2.1701418770500E-01
(PID.TID 0000.0001) %MON dynstat_vvel_mean            =  -3.8223926604369E-04
(PID.TID 0000.0001) %MON dynstat_vvel_sd              =   7.4121237062893E-03
(PID.TID 0000.0001) %MON dynstat_vvel_del2            =   3.8647868197520E-05
(PID.TID 0000.0001) %MON dynstat_wvel_max             =   5.1427430078699E-05
(PID.TID 0000.0001) %MON dynstat_wvel_min             =  -7.7346478605324E-05
(PID.TID 0000.0001) %MON dynstat_wvel_mean            =   2.8731576088249E-16
(PID.TID 0000.0001) %MON dynstat_wvel_sd              =   3.4668467044313E-06
(PID.TID 0000.0001) %MON dynstat_wvel_del2            =   3.8081866301242E-08
(PID.TID 0000.0001) %MON dynstat_theta_max            =   3.0236604792483E+01
(PID.TID 0000.0001) %MON dynstat_theta_min            =  -1.9349436358929E+00
(PID.TID 0000.0001) %MON dynstat_theta_mean           =   3.8021798336939E+00
(PID.TID 0000.0001) %MON dynstat_theta_sd             =   4.5121802848914E+00
(PID.TID 0000.0001) %MON dynstat_theta_del2           =   2.5939596344102E-03
(PID.TID 0000.0001) %MON dynstat_salt_max             =   3.7555907396101E+01
(PID.TID 0000.0001) %MON dynstat_salt_min             =   3.1485198186956E+01
(PID.TID 0000.0001) %MON dynstat_salt_mean            =   3.4614648134127E+01
(PID.TID 0000.0001) %MON dynstat_salt_sd              =   3.1407108129339E-01
(PID.TID 0000.0001) %MON dynstat_salt_del2            =   4.0520085960296E-04
(PID.TID 0000.0001) %MON forcing_qnet_max             =   4.5173381042480E+02
(PID.TID 0000.0001) %MON forcing_qnet_min             =  -2.1320401000977E+02
(PID.TID 0000.0001) %MON forcing_qnet_mean            =  -1.7651133920904E+01
(PID.TID 0000.0001) %MON forcing_qnet_sd              =   1.1600054643933E+02
(PID.TID 0000.0001) %MON forcing_qnet_del2            =   2.7307867599176E-01
(PID.TID 0000.0001) %MON forcing_qsw_max              =   0.0000000000000E+00
(PID.TID 0000.0001) %MON forcing_qsw_min              =   0.0000000000000E+00
(PID.TID 0000.0001) %MON forcing_qsw_mean             =   0.0000000000000E+00
(PID.TID 0000.0001) %MON forcing_qsw_sd               =   0.0000000000000E+00
(PID.TID 0000.0001) %MON forcing_qsw_del2             =   0.0000000000000E+00
(PID.TID 0000.0001) %MON forcing_empmr_max            =   6.6865915471226E-05
(PID.TID 0000.0001) %MON forcing_empmr_min            =  -1.5018765964214E-04
(PID.TID 0000.0001) %MON forcing_empmr_mean           =   7.7320599494488E-09
(PID.TID 0000.0001) %MON forcing_empmr_sd             =   2.3858729798697E-05
(PID.TID 0000.0001) %MON forcing_empmr_del2           =   1.1192342175733E-07
(PID.TID 0000.0001) %MON forcing_fu_max               =   2.6900262292475E-01
(PID.TID 0000.0001) %MON forcing_fu_min               =  -1.5583223197609E-01
(PID.TID 0000.0001) %MON forcing_fu_mean              =   1.7847872158759E-02
(PID.TID 0000.0001) %MON forcing_fu_sd                =   8.9352204680475E-02
(PID.TID 0000.0001) %MON forcing_fu_del2              =   2.5382464366932E-04
(PID.TID 0000.0001) %MON forcing_fv_max               =   1.9326732610352E-01
(PID.TID 0000.0001) %MON forcing_fv_min               =  -1.5593656687997E-01
(PID.TID 0000.0001) %MON forcing_fv_mean              =  -6.2257291195740E-03
(PID.TID 0000.0001) %MON forcing_fv_sd                =   4.3153969344491E-02
(PID.TID 0000.0001) %MON forcing_fv_del2              =   1.7016420379643E-04
(PID.TID 0000.0001) %MON trAdv_CFL_u_max              =   3.3374575808879E-02
(PID.TID 0000.0001) %MON trAdv_CFL_v_max              =   3.0012510227035E-02
(PID.TID 0000.0001) %MON trAdv_CFL_w_max              =   1.4435103576954E-02
(PID.TID 0000.0001) %MON advcfl_uvel_max              =   3.3612942440511E-02
(PID.TID 0000.0001) %MON advcfl_vvel_max              =   2.9982134173835E-02
(PID.TID 0000.0001) %MON advcfl_wvel_max              =   1.3365471503000E-01
(PID.TID 0000.0001) %MON advcfl_W_hf_max              =   6.0731104935471E-02
(PID.TID 0000.0001) %MON pe_b_mean                    =   4.0943013951556E-04
(PID.TID 0000.0001) %MON ke_max                       =   3.1463116596659E-02
(PID.TID 0000.0001) %MON ke_mean                      =   1.0647816217073E-04
(PID.TID 0000.0001) %MON ke_vol                       =   1.2571476858570E+18
(PID.TID 0000.0001) %MON vort_r_min                   =  -9.1593975285125E-07
(PID.TID 0000.0001) %MON vort_r_max                   =   9.9232427721194E-07
(PID.TID 0000.0001) %MON vort_a_mean                  =  -2.4002453570026E-05
(PID.TID 0000.0001) %MON vort_a_sd                    =   7.3138176974826E-05
(PID.TID 0000.0001) %MON vort_p_mean                  =  -2.8585773838204E-05
(PID.TID 0000.0001) %MON vort_p_sd                    =   1.1453379614155E-04
(PID.TID 0000.0001) %MON surfExpan_theta_mean         =  -6.8967779774617E-06
(PID.TID 0000.0001) %MON surfExpan_salt_mean          =  -5.7273788047417E-07
(PID.TID 0000.0001) // =======================================================
(PID.TID 0000.0001) // End MONITOR dynamic field statistics
(PID.TID 0000.0001) // =======================================================
(PID.TID 0000.0001) // =======================================================
(PID.TID 0000.0001) // Begin MONITOR ptracer field statistics
(PID.TID 0000.0001) // =======================================================
(PID.TID 0000.0001) %MON trcstat_ptracer01_max        =   2.4429509623824E+00
(PID.TID 0000.0001) %MON trcstat_ptracer01_min        =   1.6411948864608E+00
(PID.TID 0000.0001) %MON trcstat_ptracer01_mean       =   2.2619452737090E+00
(PID.TID 0000.0001) %MON trcstat_ptracer01_sd         =   1.0331304891394E-01
(PID.TID 0000.0001) %MON trcstat_ptracer01_del2       =   3.5349301972664E-05
(PID.TID 0000.0001) %MON trcstat_ptracer02_max        =   2.5617831157189E+00
(PID.TID 0000.0001) %MON trcstat_ptracer02_min        =   1.9500725491788E+00
(PID.TID 0000.0001) %MON trcstat_ptracer02_mean       =   2.3641949319214E+00
(PID.TID 0000.0001) %MON trcstat_ptracer02_sd         =   4.9629782189277E-02
(PID.TID 0000.0001) %MON trcstat_ptracer02_del2       =   2.3370938617205E-05
(PID.TID 0000.0001) %MON trcstat_ptracer03_max        =   3.2964224308346E-03
(PID.TID 0000.0001) %MON trcstat_ptracer03_min        =   4.8680219467787E-05
(PID.TID 0000.0001) %MON trcstat_ptracer03_mean       =   2.1265711365206E-03
(PID.TID 0000.0001) %MON trcstat_ptracer03_sd         =   6.9838226141121E-04
(PID.TID 0000.0001) %MON trcstat_ptracer03_del2       =   2.2271671919091E-07
(PID.TID 0000.0001) %MON trcstat_ptracer04_max        =   2.9996761169025E-04
(PID.TID 0000.0001) %MON trcstat_ptracer04_min        =  -1.8969251154869E-07
(PID.TID 0000.0001) %MON trcstat_ptracer04_mean       =   5.9503252714748E-06
(PID.TID 0000.0001) %MON trcstat_ptracer04_sd         =   2.6313495629654E-05
(PID.TID 0000.0001) %MON trcstat_ptracer04_del2       =   3.2460152822718E-08
(PID.TID 0000.0001) %MON trcstat_ptracer05_max        =   3.8396622777124E-01
(PID.TID 0000.0001) %MON trcstat_ptracer05_min        =   3.9791827001651E-03
(PID.TID 0000.0001) %MON trcstat_ptracer05_mean       =   1.6196351684688E-01
(PID.TID 0000.0001) %MON trcstat_ptracer05_sd         =   7.3414596078387E-02
(PID.TID 0000.0001) %MON trcstat_ptracer05_del2       =   3.0966926564932E-05
(PID.TID 0000.0001) // =======================================================
(PID.TID 0000.0001) // End MONITOR ptracers field statistics
(PID.TID 0000.0001) // =======================================================
(PID.TID 0000.0001) // =======================================================
(PID.TID 0000.0001) // Begin MONITOR EXF statistics
(PID.TID 0000.0001) // =======================================================
(PID.TID 0000.0001) %MON exf_tsnumber                 =                     1
(PID.TID 0000.0001) %MON exf_time_sec                 =   4.3200000000000E+04
(PID.TID 0000.0001) %MON exf_ustress_max              =   2.6943277177070E-01
(PID.TID 0000.0001) %MON exf_ustress_min              =  -1.6206305666316E-01
(PID.TID 0000.0001) %MON exf_ustress_mean             =   1.6899674605005E-02
(PID.TID 0000.0001) %MON exf_ustress_sd               =   8.8447595823791E-02
(PID.TID 0000.0001) %MON exf_ustress_del2             =   3.0404914785999E-04
(PID.TID 0000.0001) %MON exf_vstress_max              =   1.9510391237394E-01
(PID.TID 0000.0001) %MON exf_vstress_min              =  -1.5982012886314E-01
(PID.TID 0000.0001) %MON exf_vstress_mean             =  -6.2952137361925E-03
(PID.TID 0000.0001) %MON exf_vstress_sd               =   4.3382642729550E-02
(PID.TID 0000.0001) %MON exf_vstress_del2             =   2.5624580959713E-04
(PID.TID 0000.0001) %MON exf_hflux_max                =   4.5165785266507E+02
(PID.TID 0000.0001) %MON exf_hflux_min                =  -2.1279106090915E+02
(PID.TID 0000.0001) %MON exf_hflux_mean               =  -1.7646213518912E+01
(PID.TID 0000.0001) %MON exf_hflux_sd                 =   1.1590178997269E+02
(PID.TID 0000.0001) %MON exf_hflux_del2               =   5.3040636824504E-01
(PID.TID 0000.0001) %MON exf_sflux_max                =   6.6865915471226E-08
(PID.TID 0000.0001) %MON exf_sflux_min                =  -1.5018765964214E-07
(PID.TID 0000.0001) %MON exf_sflux_mean               =   7.7320599494535E-12
(PID.TID 0000.0001) %MON exf_sflux_sd                 =   2.3858729798697E-08
(PID.TID 0000.0001) %MON exf_sflux_del2               =   1.4236389607887E-10
(PID.TID 0000.0001) %MON exf_climsst_max              =   2.9554663565851E+01
(PID.TID 0000.0001) %MON exf_climsst_min              =  -1.9000000000000E+00
(PID.TID 0000.0001) %MON exf_climsst_mean             =   1.8313018330020E+01
(PID.TID 0000.0001) %MON exf_climsst_sd               =   9.3242804667874E+00
(PID.TID 0000.0001) %MON exf_climsst_del2             =   1.0569207185283E-02
(PID.TID 0000.0001) %MON exf_climsss_max              =   3.7455779044859E+01
(PID.TID 0000.0001) %MON exf_climsss_min              =   3.1654187110163E+01
(PID.TID 0000.0001) %MON exf_climsss_mean             =   3.4864819516689E+01
(PID.TID 0000.0001) %MON exf_climsss_sd               =   9.3591311271997E-01
(PID.TID 0000.0001) %MON exf_climsss_del2             =   2.7896276783167E-03
(PID.TID 0000.0001) // =======================================================
(PID.TID 0000.0001) // End MONITOR EXF statistics
(PID.TID 0000.0001) // =======================================================
 EXTERNAL_FIELDS_LOAD,         1 : iP,iLd,i0,i1=   12    1   12    1 ; Wght=  0.4833333333  0.5166666667
 DIC_FIELDS_LOAD,         1 : iP,iLd,i0,i1=   12    1   12    1 ; Wght=  0.4833333333  0.5166666667
 cg2d: Sum(rhs),rhsMax =  -2.90468332053706E-07  8.14465822729686E+00
(PID.TID 0000.0001)      cg2d_init_res =   4.70854320235148E-01
(PID.TID 0000.0001)      cg2d_iters(min,last) =      -1      26
(PID.TID 0000.0001)      cg2d_last_res =   4.21863568514718E-14
(PID.TID 0000.0001) // =======================================================
(PID.TID 0000.0001) // Begin MONITOR dynamic field statistics
(PID.TID 0000.0001) // =======================================================
(PID.TID 0000.0001) %MON time_tsnumber                =                     2
(PID.TID 0000.0001) %MON time_secondsf                =   8.6400000000000E+04
(PID.TID 0000.0001) %MON dynstat_eta_max              =   9.4722005413886E-01
(PID.TID 0000.0001) %MON dynstat_eta_min              =  -1.4462457088050E+00
(PID.TID 0000.0001) %MON dynstat_eta_mean             =   8.2433155652098E-11
(PID.TID 0000.0001) %MON dynstat_eta_sd               =   5.6130659143674E-01
(PID.TID 0000.0001) %MON dynstat_eta_del2             =   9.7681676876899E-04
(PID.TID 0000.0001) %MON dynstat_uvel_max             =   1.8972328480280E-01
(PID.TID 0000.0001) %MON dynstat_uvel_min             =  -2.3734727249655E-01
(PID.TID 0000.0001) %MON dynstat_uvel_mean            =   1.8605432105576E-03
(PID.TID 0000.0001) %MON dynstat_uvel_sd              =   1.3101964782179E-02
(PID.TID 0000.0001) %MON dynstat_uvel_del2            =   4.9447545036694E-05
(PID.TID 0000.0001) %MON dynstat_vvel_max             =   1.4294114378247E-01
(PID.TID 0000.0001) %MON dynstat_vvel_min             =  -2.1659994523715E-01
(PID.TID 0000.0001) %MON dynstat_vvel_mean            =  -5.8571181836033E-04
(PID.TID 0000.0001) %MON dynstat_vvel_sd              =   7.6241058840935E-03
(PID.TID 0000.0001) %MON dynstat_vvel_del2            =   3.9498894553222E-05
(PID.TID 0000.0001) %MON dynstat_wvel_max             =   7.0959292851959E-05
(PID.TID 0000.0001) %MON dynstat_wvel_min             =  -9.1329353913731E-05
(PID.TID 0000.0001) %MON dynstat_wvel_mean            =   9.5337835467225E-17
(PID.TID 0000.0001) %MON dynstat_wvel_sd              =   4.5749650626622E-06
(PID.TID 0000.0001) %MON dynstat_wvel_del2            =   4.6534037253935E-08
(PID.TID 0000.0001) %MON dynstat_theta_max            =   3.0226340900862E+01
(PID.TID 0000.0001) %MON dynstat_theta_min            =  -1.9395234208288E+00
(PID.TID 0000.0001) %MON dynstat_theta_mean           =   3.8023500445359E+00
(PID.TID 0000.0001) %MON dynstat_theta_sd             =   4.5122209508195E+00
(PID.TID 0000.0001) %MON dynstat_theta_del2           =   2.5782140825884E-03
(PID.TID 0000.0001) %MON dynstat_salt_max             =   3.7554714348949E+01
(PID.TID 0000.0001) %MON dynstat_salt_min             =   3.1485722137012E+01
(PID.TID 0000.0001) %MON dynstat_salt_mean            =   3.4614659298366E+01
(PID.TID 0000.0001) %MON dynstat_salt_sd              =   3.1403424426507E-01
(PID.TID 0000.0001) %MON dynstat_salt_del2            =   4.0015359993166E-04
(PID.TID 0000.0001) %MON forcing_qnet_max             =   4.5165785266507E+02
(PID.TID 0000.0001) %MON forcing_qnet_min             =  -2.1279106090915E+02
(PID.TID 0000.0001) %MON forcing_qnet_mean            =  -1.7646213518912E+01
(PID.TID 0000.0001) %MON forcing_qnet_sd              =   1.1590178997269E+02
(PID.TID 0000.0001) %MON forcing_qnet_del2            =   2.7316606382698E-01
(PID.TID 0000.0001) %MON forcing_qsw_max              =   0.0000000000000E+00
(PID.TID 0000.0001) %MON forcing_qsw_min              =   0.0000000000000E+00
(PID.TID 0000.0001) %MON forcing_qsw_mean             =   0.0000000000000E+00
(PID.TID 0000.0001) %MON forcing_qsw_sd               =   0.0000000000000E+00
(PID.TID 0000.0001) %MON forcing_qsw_del2             =   0.0000000000000E+00
(PID.TID 0000.0001) %MON forcing_empmr_max            =   6.6865915471226E-05
(PID.TID 0000.0001) %MON forcing_empmr_min            =  -1.5018765964214E-04
(PID.TID 0000.0001) %MON forcing_empmr_mean           =   7.7320599494488E-09
(PID.TID 0000.0001) %MON forcing_empmr_sd             =   2.3858729798697E-05
(PID.TID 0000.0001) %MON forcing_empmr_del2           =   1.1192342175733E-07
(PID.TID 0000.0001) %MON forcing_fu_max               =   2.6863057397666E-01
(PID.TID 0000.0001) %MON forcing_fu_min               =  -1.5568593330681E-01
(PID.TID 0000.0001) %MON forcing_fu_mean              =   1.7838992188020E-02
(PID.TID 0000.0001) %MON forcing_fu_sd                =   8.9343188382592E-02
(PID.TID 0000.0001) %MON forcing_fu_del2              =   2.5411327710744E-04
(PID.TID 0000.0001) %MON forcing_fv_max               =   1.9370707405371E-01
(PID.TID 0000.0001) %MON forcing_fv_min               =  -1.5617849437460E-01
(PID.TID 0000.0001) %MON forcing_fv_mean              =  -6.2081588671275E-03
(PID.TID 0000.0001) %MON forcing_fv_sd                =   4.3201144087009E-02
(PID.TID 0000.0001) %MON forcing_fv_del2              =   1.7018842283055E-04
(PID.TID 0000.0001) %MON trAdv_CFL_u_max              =   3.3616317377044E-02
(PID.TID 0000.0001) %MON trAdv_CFL_v_max              =   2.9958048940354E-02
(PID.TID 0000.0001) %MON trAdv_CFL_w_max              =   6.0731104935471E-02
(PID.TID 0000.0001) %MON advcfl_uvel_max              =   3.4561235984532E-02
(PID.TID 0000.0001) %MON advcfl_vvel_max              =   2.9924903476695E-02
(PID.TID 0000.0001) %MON advcfl_wvel_max              =   1.5781712356293E-01
(PID.TID 0000.0001) %MON advcfl_W_hf_max              =   7.0324748907562E-02
(PID.TID 0000.0001) %MON pe_b_mean                    =   4.0607286518286E-04
(PID.TID 0000.0001) %MON ke_max                       =   3.1156013246331E-02
(PID.TID 0000.0001) %MON ke_mean                      =   1.0813821337358E-04
(PID.TID 0000.0001) %MON ke_vol                       =   1.2571476858570E+18
(PID.TID 0000.0001) %MON vort_r_min                   =  -8.9399229400817E-07
(PID.TID 0000.0001) %MON vort_r_max                   =   9.9582907181731E-07
(PID.TID 0000.0001) %MON vort_a_mean                  =  -2.4002453570026E-05
(PID.TID 0000.0001) %MON vort_a_sd                    =   7.3138177297585E-05
(PID.TID 0000.0001) %MON vort_p_mean                  =  -2.8585773838204E-05
(PID.TID 0000.0001) %MON vort_p_sd                    =   1.1453381485233E-04
(PID.TID 0000.0001) %MON surfExpan_theta_mean         =  -1.2724304507296E-05
(PID.TID 0000.0001) %MON surfExpan_salt_mean          =  -1.0820322357387E-06
(PID.TID 0000.0001) // =======================================================
(PID.TID 0000.0001) // End MONITOR dynamic field statistics
(PID.TID 0000.0001) // =======================================================
(PID.TID 0000.0001) // =======================================================
(PID.TID 0000.0001) // Begin MONITOR ptracer field statistics
(PID.TID 0000.0001) // =======================================================
(PID.TID 0000.0001) %MON trcstat_ptracer01_max        =   2.4429509045570E+00
(PID.TID 0000.0001) %MON trcstat_ptracer01_min        =   1.6412129531527E+00
(PID.TID 0000.0001) %MON trcstat_ptracer01_mean       =   2.2619441307574E+00
(PID.TID 0000.0001) %MON trcstat_ptracer01_sd         =   1.0331436651437E-01
(PID.TID 0000.0001) %MON trcstat_ptracer01_del2       =   3.5336433023477E-05
(PID.TID 0000.0001) %MON trcstat_ptracer02_max        =   2.5618349082224E+00
(PID.TID 0000.0001) %MON trcstat_ptracer02_min        =   1.9501087979290E+00
(PID.TID 0000.0001) %MON trcstat_ptracer02_mean       =   2.3641949016142E+00
(PID.TID 0000.0001) %MON trcstat_ptracer02_sd         =   4.9629494515699E-02
(PID.TID 0000.0001) %MON trcstat_ptracer02_del2       =   2.3326102302896E-05
(PID.TID 0000.0001) %MON trcstat_ptracer03_max        =   3.2964192164326E-03
(PID.TID 0000.0001) %MON trcstat_ptracer03_min        =   4.8701955390245E-05
(PID.TID 0000.0001) %MON trcstat_ptracer03_mean       =   2.1265619795585E-03
(PID.TID 0000.0001) %MON trcstat_ptracer03_sd         =   6.9839360016780E-04
(PID.TID 0000.0001) %MON trcstat_ptracer03_del2       =   2.2261240284475E-07
(PID.TID 0000.0001) %MON trcstat_ptracer04_max        =   2.9967011462216E-04
(PID.TID 0000.0001) %MON trcstat_ptracer04_min        =  -1.8888370377749E-07
(PID.TID 0000.0001) %MON trcstat_ptracer04_mean       =   5.9514664310727E-06
(PID.TID 0000.0001) %MON trcstat_ptracer04_sd         =   2.6295976686871E-05
(PID.TID 0000.0001) %MON trcstat_ptracer04_del2       =   3.2038387259962E-08
(PID.TID 0000.0001) %MON trcstat_ptracer05_max        =   3.8281102174748E-01
(PID.TID 0000.0001) %MON trcstat_ptracer05_min        =   3.9791911653967E-03
(PID.TID 0000.0001) %MON trcstat_ptracer05_mean       =   1.6196275314152E-01
(PID.TID 0000.0001) %MON trcstat_ptracer05_sd         =   7.3412340344815E-02
(PID.TID 0000.0001) %MON trcstat_ptracer05_del2       =   3.0862459522927E-05
(PID.TID 0000.0001) // =======================================================
(PID.TID 0000.0001) // End MONITOR ptracers field statistics
(PID.TID 0000.0001) // =======================================================
(PID.TID 0000.0001) // =======================================================
(PID.TID 0000.0001) // Begin MONITOR EXF statistics
(PID.TID 0000.0001) // =======================================================
(PID.TID 0000.0001) %MON exf_tsnumber                 =                     2
(PID.TID 0000.0001) %MON exf_time_sec                 =   8.6400000000000E+04
(PID.TID 0000.0001) %MON exf_ustress_max              =   2.6929746671850E-01
(PID.TID 0000.0001) %MON exf_ustress_min              =  -1.6199255932964E-01
(PID.TID 0000.0001) %MON exf_ustress_mean             =   1.6891272067926E-02
(PID.TID 0000.0001) %MON exf_ustress_sd               =   8.8438959804829E-02
(PID.TID 0000.0001) %MON exf_ustress_del2             =   3.0435718426441E-04
(PID.TID 0000.0001) %MON exf_vstress_max              =   1.9562167905632E-01
(PID.TID 0000.0001) %MON exf_vstress_min              =  -1.5955065596368E-01
(PID.TID 0000.0001) %MON exf_vstress_mean             =  -6.2776377928534E-03
(PID.TID 0000.0001) %MON exf_vstress_sd               =   4.3429640500992E-02
(PID.TID 0000.0001) %MON exf_vstress_del2             =   2.5624107301355E-04
(PID.TID 0000.0001) %MON exf_hflux_max                =   4.5158189490534E+02
(PID.TID 0000.0001) %MON exf_hflux_min                =  -2.1237811180853E+02
(PID.TID 0000.0001) %MON exf_hflux_mean               =  -1.7641293116919E+01
(PID.TID 0000.0001) %MON exf_hflux_sd                 =   1.1580454156535E+02
(PID.TID 0000.0001) %MON exf_hflux_del2               =   5.3057590246930E-01
(PID.TID 0000.0001) %MON exf_sflux_max                =   6.6865915471226E-08
(PID.TID 0000.0001) %MON exf_sflux_min                =  -1.5018765964214E-07
(PID.TID 0000.0001) %MON exf_sflux_mean               =   7.7320599494537E-12
(PID.TID 0000.0001) %MON exf_sflux_sd                 =   2.3858729798697E-08
(PID.TID 0000.0001) %MON exf_sflux_del2               =   1.4236389607887E-10
(PID.TID 0000.0001) %MON exf_climsst_max              =   2.9549537474109E+01
(PID.TID 0000.0001) %MON exf_climsst_min              =  -1.9000000000000E+00
(PID.TID 0000.0001) %MON exf_climsst_mean             =   1.8316781771594E+01
(PID.TID 0000.0001) %MON exf_climsst_sd               =   9.3223942503104E+00
(PID.TID 0000.0001) %MON exf_climsst_del2             =   1.0559724555019E-02
(PID.TID 0000.0001) %MON exf_climsss_max              =   3.7455583510860E+01
(PID.TID 0000.0001) %MON exf_climsss_min              =   3.1659106069996E+01
(PID.TID 0000.0001) %MON exf_climsss_mean             =   3.4864857319124E+01
(PID.TID 0000.0001) %MON exf_climsss_sd               =   9.3560810536682E-01
(PID.TID 0000.0001) %MON exf_climsss_del2             =   2.7873624688959E-03
(PID.TID 0000.0001) // =======================================================
(PID.TID 0000.0001) // End MONITOR EXF statistics
(PID.TID 0000.0001) // =======================================================
 EXTERNAL_FIELDS_LOAD,         2 : iP,iLd,i0,i1=   12    1   12    1 ; Wght=  0.4666666667  0.5333333333
 DIC_FIELDS_LOAD,         2 : iP,iLd,i0,i1=   12    1   12    1 ; Wght=  0.4666666667  0.5333333333
 cg2d: Sum(rhs),rhsMax =  -2.94058960292887E-07  8.03589607451884E+00
(PID.TID 0000.0001)      cg2d_init_res =   4.81057002388247E-01
(PID.TID 0000.0001)      cg2d_iters(min,last) =      -1      26
(PID.TID 0000.0001)      cg2d_last_res =   5.19718097768976E-14
(PID.TID 0000.0001) // =======================================================
(PID.TID 0000.0001) // Begin MONITOR dynamic field statistics
(PID.TID 0000.0001) // =======================================================
(PID.TID 0000.0001) %MON time_tsnumber                =                     3
(PID.TID 0000.0001) %MON time_secondsf                =   1.2960000000000E+05
(PID.TID 0000.0001) %MON dynstat_eta_max              =   9.3379962589637E-01
(PID.TID 0000.0001) %MON dynstat_eta_min              =  -1.4430280249676E+00
(PID.TID 0000.0001) %MON dynstat_eta_mean             =   8.2337603181491E-11
(PID.TID 0000.0001) %MON dynstat_eta_sd               =   5.5833791240167E-01
(PID.TID 0000.0001) %MON dynstat_eta_del2             =   9.1194836729446E-04
(PID.TID 0000.0001) %MON dynstat_uvel_max             =   1.8959944229961E-01
(PID.TID 0000.0001) %MON dynstat_uvel_min             =  -2.3784450849112E-01
(PID.TID 0000.0001) %MON dynstat_uvel_mean            =   1.8594344067951E-03
(PID.TID 0000.0001) %MON dynstat_uvel_sd              =   1.3115520417400E-02
(PID.TID 0000.0001) %MON dynstat_uvel_del2            =   4.9631346623334E-05
(PID.TID 0000.0001) %MON dynstat_vvel_max             =   1.3842452849221E-01
(PID.TID 0000.0001) %MON dynstat_vvel_min             =  -2.1615499717328E-01
(PID.TID 0000.0001) %MON dynstat_vvel_mean            =  -7.7424122907346E-04
(PID.TID 0000.0001) %MON dynstat_vvel_sd              =   7.9019086967100E-03
(PID.TID 0000.0001) %MON dynstat_vvel_del2            =   4.0377457900386E-05
(PID.TID 0000.0001) %MON dynstat_wvel_max             =   1.3145298732272E-04
(PID.TID 0000.0001) %MON dynstat_wvel_min             =  -9.3583424912381E-05
(PID.TID 0000.0001) %MON dynstat_wvel_mean            =  -1.4052850675824E-16
(PID.TID 0000.0001) %MON dynstat_wvel_sd              =   5.9036106863176E-06
(PID.TID 0000.0001) %MON dynstat_wvel_del2            =   5.4308934413811E-08
(PID.TID 0000.0001) %MON dynstat_theta_max            =   3.0215529678307E+01
(PID.TID 0000.0001) %MON dynstat_theta_min            =  -1.9382880756528E+00
(PID.TID 0000.0001) %MON dynstat_theta_mean           =   3.8025816077902E+00
(PID.TID 0000.0001) %MON dynstat_theta_sd             =   4.5123266345937E+00
(PID.TID 0000.0001) %MON dynstat_theta_del2           =   2.5625393786356E-03
(PID.TID 0000.0001) %MON dynstat_salt_max             =   3.7553493782948E+01
(PID.TID 0000.0001) %MON dynstat_salt_min             =   3.1486189439695E+01
(PID.TID 0000.0001) %MON dynstat_salt_mean            =   3.4614675482787E+01
(PID.TID 0000.0001) %MON dynstat_salt_sd              =   3.1399705258057E-01
(PID.TID 0000.0001) %MON dynstat_salt_del2            =   3.9573241924050E-04
(PID.TID 0000.0001) %MON forcing_qnet_max             =   4.5158189490534E+02
(PID.TID 0000.0001) %MON forcing_qnet_min             =  -2.1237811180853E+02
(PID.TID 0000.0001) %MON forcing_qnet_mean            =  -1.7641293116919E+01
(PID.TID 0000.0001) %MON forcing_qnet_sd              =   1.1580454156535E+02
(PID.TID 0000.0001) %MON forcing_qnet_del2            =   2.7327693904530E-01
(PID.TID 0000.0001) %MON forcing_qsw_max              =   0.0000000000000E+00
(PID.TID 0000.0001) %MON forcing_qsw_min              =   0.0000000000000E+00
(PID.TID 0000.0001) %MON forcing_qsw_mean             =   0.0000000000000E+00
(PID.TID 0000.0001) %MON forcing_qsw_sd               =   0.0000000000000E+00
(PID.TID 0000.0001) %MON forcing_qsw_del2             =   0.0000000000000E+00
(PID.TID 0000.0001) %MON forcing_empmr_max            =   6.6865915471226E-05
(PID.TID 0000.0001) %MON forcing_empmr_min            =  -1.5018765964214E-04
(PID.TID 0000.0001) %MON forcing_empmr_mean           =   7.7320599494488E-09
(PID.TID 0000.0001) %MON forcing_empmr_sd             =   2.3858729798697E-05
(PID.TID 0000.0001) %MON forcing_empmr_del2           =   1.1192342175733E-07
(PID.TID 0000.0001) %MON forcing_fu_max               =   2.6825852502858E-01
(PID.TID 0000.0001) %MON forcing_fu_min               =  -1.5553963463753E-01
(PID.TID 0000.0001) %MON forcing_fu_mean              =   1.7830112217280E-02
(PID.TID 0000.0001) %MON forcing_fu_sd                =   8.9335530447834E-02
(PID.TID 0000.0001) %MON forcing_fu_del2              =   2.5442405253444E-04
(PID.TID 0000.0001) %MON forcing_fv_max               =   1.9414682200389E-01
(PID.TID 0000.0001) %MON forcing_fv_min               =  -1.5642042186922E-01
(PID.TID 0000.0001) %MON forcing_fv_mean              =  -6.1905886146811E-03
(PID.TID 0000.0001) %MON forcing_fv_sd                =   4.3249877025261E-02
(PID.TID 0000.0001) %MON forcing_fv_del2              =   1.7022816556027E-04
(PID.TID 0000.0001) %MON trAdv_CFL_u_max              =   3.4564706135298E-02
(PID.TID 0000.0001) %MON trAdv_CFL_v_max              =   2.9900864217750E-02
(PID.TID 0000.0001) %MON trAdv_CFL_w_max              =   7.0324748907562E-02
(PID.TID 0000.0001) %MON advcfl_uvel_max              =   3.5356241749185E-02
(PID.TID 0000.0001) %MON advcfl_vvel_max              =   2.9863430571664E-02
(PID.TID 0000.0001) %MON advcfl_wvel_max              =   1.5227309218897E-01
(PID.TID 0000.0001) %MON advcfl_W_hf_max              =   6.5548919127160E-02
(PID.TID 0000.0001) %MON pe_b_mean                    =   4.0178888864677E-04
(PID.TID 0000.0001) %MON ke_max                       =   3.1182873418834E-02
(PID.TID 0000.0001) %MON ke_mean                      =   1.1039960978765E-04
(PID.TID 0000.0001) %MON ke_vol                       =   1.2571476858570E+18
(PID.TID 0000.0001) %MON vort_r_min                   =  -8.6647694300542E-07
(PID.TID 0000.0001) %MON vort_r_max                   =   9.9924636146608E-07
(PID.TID 0000.0001) %MON vort_a_mean                  =  -2.4002453570026E-05
(PID.TID 0000.0001) %MON vort_a_sd                    =   7.3138177746826E-05
(PID.TID 0000.0001) %MON vort_p_mean                  =  -2.8585773838204E-05
(PID.TID 0000.0001) %MON vort_p_sd                    =   1.1453384599964E-04
(PID.TID 0000.0001) %MON surfExpan_theta_mean         =  -1.7547547373170E-05
(PID.TID 0000.0001) %MON surfExpan_salt_mean          =  -1.4942338821879E-06
(PID.TID 0000.0001) // =======================================================
(PID.TID 0000.0001) // End MONITOR dynamic field statistics
(PID.TID 0000.0001) // =======================================================
(PID.TID 0000.0001) // =======================================================
(PID.TID 0000.0001) // Begin MONITOR ptracer field statistics
(PID.TID 0000.0001) // =======================================================
(PID.TID 0000.0001) %MON trcstat_ptracer01_max        =   2.4429508072743E+00
(PID.TID 0000.0001) %MON trcstat_ptracer01_min        =   1.6412311260521E+00
(PID.TID 0000.0001) %MON trcstat_ptracer01_mean       =   2.2619423353347E+00
(PID.TID 0000.0001) %MON trcstat_ptracer01_sd         =   1.0331680723976E-01
(PID.TID 0000.0001) %MON trcstat_ptracer01_del2       =   3.5332058948185E-05
(PID.TID 0000.0001) %MON trcstat_ptracer02_max        =   2.5619355258232E+00
(PID.TID 0000.0001) %MON trcstat_ptracer02_min        =   1.9501452765096E+00
(PID.TID 0000.0001) %MON trcstat_ptracer02_mean       =   2.3641948555257E+00
(PID.TID 0000.0001) %MON trcstat_ptracer02_sd         =   4.9629155946948E-02
(PID.TID 0000.0001) %MON trcstat_ptracer02_del2       =   2.3278912150752E-05
(PID.TID 0000.0001) %MON trcstat_ptracer03_max        =   3.2964159199856E-03
(PID.TID 0000.0001) %MON trcstat_ptracer03_min        =   4.8723409202601E-05
(PID.TID 0000.0001) %MON trcstat_ptracer03_mean       =   2.1265465485225E-03
(PID.TID 0000.0001) %MON trcstat_ptracer03_sd         =   6.9841552684167E-04
(PID.TID 0000.0001) %MON trcstat_ptracer03_del2       =   2.2255949351644E-07
(PID.TID 0000.0001) %MON trcstat_ptracer04_max        =   2.9937598753328E-04
(PID.TID 0000.0001) %MON trcstat_ptracer04_min        =  -1.8748767033298E-07
(PID.TID 0000.0001) %MON trcstat_ptracer04_mean       =   5.9522090327863E-06
(PID.TID 0000.0001) %MON trcstat_ptracer04_sd         =   2.6274030390139E-05
(PID.TID 0000.0001) %MON trcstat_ptracer04_del2       =   3.1826758092276E-08
(PID.TID 0000.0001) %MON trcstat_ptracer05_max        =   3.8284210940626E-01
(PID.TID 0000.0001) %MON trcstat_ptracer05_min        =   3.9775653588938E-03
(PID.TID 0000.0001) %MON trcstat_ptracer05_mean       =   1.6196166655689E-01
(PID.TID 0000.0001) %MON trcstat_ptracer05_sd         =   7.3409383704142E-02
(PID.TID 0000.0001) %MON trcstat_ptracer05_del2       =   3.0789965982353E-05
(PID.TID 0000.0001) // =======================================================
(PID.TID 0000.0001) // End MONITOR ptracers field statistics
(PID.TID 0000.0001) // =======================================================
(PID.TID 0000.0001) // =======================================================
(PID.TID 0000.0001) // Begin MONITOR EXF statistics
(PID.TID 0000.0001) // =======================================================
(PID.TID 0000.0001) %MON exf_tsnumber                 =                     3
(PID.TID 0000.0001) %MON exf_time_sec                 =   1.2960000000000E+05
(PID.TID 0000.0001) %MON exf_ustress_max              =   2.6916216166630E-01
(PID.TID 0000.0001) %MON exf_ustress_min              =  -1.6192206199611E-01
(PID.TID 0000.0001) %MON exf_ustress_mean             =   1.6882869530846E-02
(PID.TID 0000.0001) %MON exf_ustress_sd               =   8.8431677111949E-02
(PID.TID 0000.0001) %MON exf_ustress_del2             =   3.0468689478125E-04
(PID.TID 0000.0001) %MON exf_vstress_max              =   1.9613944573869E-01
(PID.TID 0000.0001) %MON exf_vstress_min              =  -1.5928118306422E-01
(PID.TID 0000.0001) %MON exf_vstress_mean             =  -6.2600618495142E-03
(PID.TID 0000.0001) %MON exf_vstress_sd               =   4.3478226902573E-02
(PID.TID 0000.0001) %MON exf_vstress_del2             =   2.5625367830215E-04
(PID.TID 0000.0001) %MON exf_hflux_max                =   4.5150593714560E+02
(PID.TID 0000.0001) %MON exf_hflux_min                =  -2.1196516270791E+02
(PID.TID 0000.0001) %MON exf_hflux_mean               =  -1.7636372714927E+01
(PID.TID 0000.0001) %MON exf_hflux_sd                 =   1.1570880501967E+02
(PID.TID 0000.0001) %MON exf_hflux_del2               =   5.3076469777991E-01
(PID.TID 0000.0001) %MON exf_sflux_max                =   6.6865915471226E-08
(PID.TID 0000.0001) %MON exf_sflux_min                =  -1.5018765964214E-07
(PID.TID 0000.0001) %MON exf_sflux_mean               =   7.7320599494533E-12
(PID.TID 0000.0001) %MON exf_sflux_sd                 =   2.3858729798697E-08
(PID.TID 0000.0001) %MON exf_sflux_del2               =   1.4236389607887E-10
(PID.TID 0000.0001) %MON exf_climsst_max              =   2.9544411382368E+01
(PID.TID 0000.0001) %MON exf_climsst_min              =  -1.9000000000000E+00
(PID.TID 0000.0001) %MON exf_climsst_mean             =   1.8320546043230E+01
(PID.TID 0000.0001) %MON exf_climsst_sd               =   9.3205446093540E+00
(PID.TID 0000.0001) %MON exf_climsst_del2             =   1.0551876574635E-02
(PID.TID 0000.0001) %MON exf_climsss_max              =   3.7455387976862E+01
(PID.TID 0000.0001) %MON exf_climsss_min              =   3.1664025029828E+01
(PID.TID 0000.0001) %MON exf_climsss_mean             =   3.4864895121559E+01
(PID.TID 0000.0001) %MON exf_climsss_sd               =   9.3531208509272E-01
(PID.TID 0000.0001) %MON exf_climsss_del2             =   2.7857363368023E-03
(PID.TID 0000.0001) // =======================================================
(PID.TID 0000.0001) // End MONITOR EXF statistics
(PID.TID 0000.0001) // =======================================================
 EXTERNAL_FIELDS_LOAD,         3 : iP,iLd,i0,i1=   12    1   12    1 ; Wght=  0.4500000000  0.5500000000
 DIC_FIELDS_LOAD,         3 : iP,iLd,i0,i1=   12    1   12    1 ; Wght=  0.4500000000  0.5500000000
 cg2d: Sum(rhs),rhsMax =  -2.96891879969507E-07  7.93691554038179E+00
(PID.TID 0000.0001)      cg2d_init_res =   4.70037595928618E-01
(PID.TID 0000.0001)      cg2d_iters(min,last) =      -1      26
(PID.TID 0000.0001)      cg2d_last_res =   5.64911271200915E-14
(PID.TID 0000.0001) // =======================================================
(PID.TID 0000.0001) // Begin MONITOR dynamic field statistics
(PID.TID 0000.0001) // =======================================================
(PID.TID 0000.0001) %MON time_tsnumber                =                     4
(PID.TID 0000.0001) %MON time_secondsf                =   1.7280000000000E+05
(PID.TID 0000.0001) %MON dynstat_eta_max              =   9.2167447075494E-01
(PID.TID 0000.0001) %MON dynstat_eta_min              =  -1.4447632698483E+00
(PID.TID 0000.0001) %MON dynstat_eta_mean             =   8.2106801465152E-11
(PID.TID 0000.0001) %MON dynstat_eta_sd               =   5.5495714509270E-01
(PID.TID 0000.0001) %MON dynstat_eta_del2             =   8.6917137713520E-04
(PID.TID 0000.0001) %MON dynstat_uvel_max             =   1.8945762015232E-01
(PID.TID 0000.0001) %MON dynstat_uvel_min             =  -2.3833963430126E-01
(PID.TID 0000.0001) %MON dynstat_uvel_mean            =   1.8567368149419E-03
(PID.TID 0000.0001) %MON dynstat_uvel_sd              =   1.3127537442392E-02
(PID.TID 0000.0001) %MON dynstat_uvel_del2            =   4.9867092872260E-05
(PID.TID 0000.0001) %MON dynstat_vvel_max             =   1.3651393175268E-01
(PID.TID 0000.0001) %MON dynstat_vvel_min             =  -2.1567795314679E-01
(PID.TID 0000.0001) %MON dynstat_vvel_mean            =  -9.4583324216466E-04
(PID.TID 0000.0001) %MON dynstat_vvel_sd              =   8.2168154271852E-03
(PID.TID 0000.0001) %MON dynstat_vvel_del2            =   4.1288481879267E-05
(PID.TID 0000.0001) %MON dynstat_wvel_max             =   1.9411886705696E-04
(PID.TID 0000.0001) %MON dynstat_wvel_min             =  -1.1753319543448E-04
(PID.TID 0000.0001) %MON dynstat_wvel_mean            =  -3.3896902057926E-16
(PID.TID 0000.0001) %MON dynstat_wvel_sd              =   7.6217677991371E-06
(PID.TID 0000.0001) %MON dynstat_wvel_del2            =   6.7288692902741E-08
(PID.TID 0000.0001) %MON dynstat_theta_max            =   3.0204079825110E+01
(PID.TID 0000.0001) %MON dynstat_theta_min            =  -1.9374827363259E+00
(PID.TID 0000.0001) %MON dynstat_theta_mean           =   3.8028619859808E+00
(PID.TID 0000.0001) %MON dynstat_theta_sd             =   4.5124976280583E+00
(PID.TID 0000.0001) %MON dynstat_theta_del2           =   2.5514156123112E-03
(PID.TID 0000.0001) %MON dynstat_salt_max             =   3.7552317824988E+01
(PID.TID 0000.0001) %MON dynstat_salt_min             =   3.1486597120659E+01
(PID.TID 0000.0001) %MON dynstat_salt_mean            =   3.4614695522935E+01
(PID.TID 0000.0001) %MON dynstat_salt_sd              =   3.1396615730219E-01
(PID.TID 0000.0001) %MON dynstat_salt_del2            =   3.9329276040878E-04
(PID.TID 0000.0001) %MON forcing_qnet_max             =   4.5150593714560E+02
(PID.TID 0000.0001) %MON forcing_qnet_min             =  -2.1196516270791E+02
(PID.TID 0000.0001) %MON forcing_qnet_mean            =  -1.7636372714927E+01
(PID.TID 0000.0001) %MON forcing_qnet_sd              =   1.1570880501967E+02
(PID.TID 0000.0001) %MON forcing_qnet_del2            =   2.7341127307255E-01
(PID.TID 0000.0001) %MON forcing_qsw_max              =   0.0000000000000E+00
(PID.TID 0000.0001) %MON forcing_qsw_min              =   0.0000000000000E+00
(PID.TID 0000.0001) %MON forcing_qsw_mean             =   0.0000000000000E+00
(PID.TID 0000.0001) %MON forcing_qsw_sd               =   0.0000000000000E+00
(PID.TID 0000.0001) %MON forcing_qsw_del2             =   0.0000000000000E+00
(PID.TID 0000.0001) %MON forcing_empmr_max            =   6.6865915471226E-05
(PID.TID 0000.0001) %MON forcing_empmr_min            =  -1.5018765964214E-04
(PID.TID 0000.0001) %MON forcing_empmr_mean           =   7.7320599494488E-09
(PID.TID 0000.0001) %MON forcing_empmr_sd             =   2.3858729798697E-05
(PID.TID 0000.0001) %MON forcing_empmr_del2           =   1.1192342175733E-07
(PID.TID 0000.0001) %MON forcing_fu_max               =   2.6815145827770E-01
(PID.TID 0000.0001) %MON forcing_fu_min               =  -1.5539333596826E-01
(PID.TID 0000.0001) %MON forcing_fu_mean              =   1.7821232246540E-02
(PID.TID 0000.0001) %MON forcing_fu_sd                =   8.9329231225546E-02
(PID.TID 0000.0001) %MON forcing_fu_del2              =   2.5475688891793E-04
(PID.TID 0000.0001) %MON forcing_fv_max               =   1.9458656995407E-01
(PID.TID 0000.0001) %MON forcing_fv_min               =  -1.5666234936385E-01
(PID.TID 0000.0001) %MON forcing_fv_mean              =  -6.1730183622347E-03
(PID.TID 0000.0001) %MON forcing_fv_sd                =   4.3300162898150E-02
(PID.TID 0000.0001) %MON forcing_fv_del2              =   1.7028342111629E-04
(PID.TID 0000.0001) %MON trAdv_CFL_u_max              =   3.5359791723192E-02
(PID.TID 0000.0001) %MON trAdv_CFL_v_max              =   2.9839440695103E-02
(PID.TID 0000.0001) %MON trAdv_CFL_w_max              =   6.5548919127160E-02
(PID.TID 0000.0001) %MON advcfl_uvel_max              =   3.5933080488029E-02
(PID.TID 0000.0001) %MON advcfl_vvel_max              =   2.9797523369189E-02
(PID.TID 0000.0001) %MON advcfl_wvel_max              =   1.4450249559507E-01
(PID.TID 0000.0001) %MON advcfl_W_hf_max              =   6.1855292409116E-02
(PID.TID 0000.0001) %MON pe_b_mean                    =   3.9693791129855E-04
(PID.TID 0000.0001) %MON ke_max                       =   3.1229278631178E-02
(PID.TID 0000.0001) %MON ke_mean                      =   1.1300772750803E-04
(PID.TID 0000.0001) %MON ke_vol                       =   1.2571476858570E+18
(PID.TID 0000.0001) %MON vort_r_min                   =  -8.4007669175205E-07
(PID.TID 0000.0001) %MON vort_r_max                   =   1.0025926642180E-06
(PID.TID 0000.0001) %MON vort_a_mean                  =  -2.4002453570026E-05
(PID.TID 0000.0001) %MON vort_a_sd                    =   7.3138178029738E-05
(PID.TID 0000.0001) %MON vort_p_mean                  =  -2.8585773838204E-05
(PID.TID 0000.0001) %MON vort_p_sd                    =   1.1453389438398E-04
(PID.TID 0000.0001) %MON surfExpan_theta_mean         =  -2.1410053212793E-05
(PID.TID 0000.0001) %MON surfExpan_salt_mean          =  -1.8172987905291E-06
(PID.TID 0000.0001) // =======================================================
(PID.TID 0000.0001) // End MONITOR dynamic field statistics
(PID.TID 0000.0001) // =======================================================
(PID.TID 0000.0001) // =======================================================
(PID.TID 0000.0001) // Begin MONITOR ptracer field statistics
(PID.TID 0000.0001) // =======================================================
(PID.TID 0000.0001) %MON trcstat_ptracer01_max        =   2.4429506859345E+00
(PID.TID 0000.0001) %MON trcstat_ptracer01_min        =   1.6412495315076E+00
(PID.TID 0000.0001) %MON trcstat_ptracer01_mean       =   2.2619400216726E+00
(PID.TID 0000.0001) %MON trcstat_ptracer01_sd         =   1.0332022001764E-01
(PID.TID 0000.0001) %MON trcstat_ptracer01_del2       =   3.5317809074994E-05
(PID.TID 0000.0001) %MON trcstat_ptracer02_max        =   2.5620556924439E+00
(PID.TID 0000.0001) %MON trcstat_ptracer02_min        =   1.9501821229210E+00
(PID.TID 0000.0001) %MON trcstat_ptracer02_mean       =   2.3641948140073E+00
(PID.TID 0000.0001) %MON trcstat_ptracer02_sd         =   4.9628804335372E-02
(PID.TID 0000.0001) %MON trcstat_ptracer02_del2       =   2.3239471971280E-05
(PID.TID 0000.0001) %MON trcstat_ptracer03_max        =   3.2964125432713E-03
(PID.TID 0000.0001) %MON trcstat_ptracer03_min        =   4.8744538065096E-05
(PID.TID 0000.0001) %MON trcstat_ptracer03_mean       =   2.1265260739093E-03
(PID.TID 0000.0001) %MON trcstat_ptracer03_sd         =   6.9844641576860E-04
(PID.TID 0000.0001) %MON trcstat_ptracer03_del2       =   2.2250526452989E-07
(PID.TID 0000.0001) %MON trcstat_ptracer04_max        =   2.9908515564669E-04
(PID.TID 0000.0001) %MON trcstat_ptracer04_min        =  -1.8573009895589E-07
(PID.TID 0000.0001) %MON trcstat_ptracer04_mean       =   5.9527056833499E-06
(PID.TID 0000.0001) %MON trcstat_ptracer04_sd         =   2.6254231697520E-05
(PID.TID 0000.0001) %MON trcstat_ptracer04_del2       =   3.1985975593041E-08
(PID.TID 0000.0001) %MON trcstat_ptracer05_max        =   3.8287338545023E-01
(PID.TID 0000.0001) %MON trcstat_ptracer05_min        =   3.9792087735335E-03
(PID.TID 0000.0001) %MON trcstat_ptracer05_mean       =   1.6196033336246E-01
(PID.TID 0000.0001) %MON trcstat_ptracer05_sd         =   7.3406046586078E-02
(PID.TID 0000.0001) %MON trcstat_ptracer05_del2       =   3.0784804695592E-05
(PID.TID 0000.0001) // =======================================================
(PID.TID 0000.0001) // End MONITOR ptracers field statistics
(PID.TID 0000.0001) // =======================================================
 Computing Diagnostic #     23  ETAN         Counter:       4   Parms: SM      M1      
 Computing Diagnostic #     24  ETANSQ       Counter:       4   Parms: SM P    M1      
 Computing Diagnostic #     25  DETADT2      Counter:       4   Parms: SM      M1      
 Computing Diagnostic #     73  PHIBOT       Counter:       4   Parms: SM      M1      
 Computing Diagnostic #     74  PHIBOTSQ     Counter:       4   Parms: SM P    M1      
 Computing Diagnostic #    308  DICTFLX      Counter:       4   Parms: SM P    L1      
 Computing Diagnostic #    309  DICOFLX      Counter:       4   Parms: SM P    L1      
 Computing Diagnostic #    310  DICCFLX      Counter:       4   Parms: SM P    L1      
 Computing Diagnostic #    311  DICPCO2      Counter:       4   Parms: SM P    M1      
 Computing Diagnostic #    312  DICPHAV      Counter:       4   Parms: SM P    M1      
(PID.TID 0000.0001) %CHECKPOINT         4 ckptA
(PID.TID 0000.0001)   Seconds in section "ALL                    [THE_MODEL_MAIN]":
(PID.TID 0000.0001)           User time:  0.74608797929249704
(PID.TID 0000.0001)         System time:  0.10977499908767641
(PID.TID 0000.0001)     Wall clock time:  0.88840985298156738
(PID.TID 0000.0001)          No. starts:           1
(PID.TID 0000.0001)           No. stops:           1
(PID.TID 0000.0001)   Seconds in section "INITIALISE_FIXED       [THE_MODEL_MAIN]":
(PID.TID 0000.0001)           User time:   3.5512999165803194E-002
(PID.TID 0000.0001)         System time:   2.1134000504389405E-002
(PID.TID 0000.0001)     Wall clock time:   6.2930107116699219E-002
(PID.TID 0000.0001)          No. starts:           1
(PID.TID 0000.0001)           No. stops:           1
(PID.TID 0000.0001)   Seconds in section "THE_MAIN_LOOP          [THE_MODEL_MAIN]":
(PID.TID 0000.0001)           User time:  0.71055197343230247
(PID.TID 0000.0001)         System time:   8.8636999949812889E-002
(PID.TID 0000.0001)     Wall clock time:  0.82546091079711914
(PID.TID 0000.0001)          No. starts:           1
(PID.TID 0000.0001)           No. stops:           1
(PID.TID 0000.0001)   Seconds in section "INITIALISE_VARIA    [THE_MAIN_LOOP]":
(PID.TID 0000.0001)           User time:   5.8536000549793243E-002
(PID.TID 0000.0001)         System time:   4.8686003312468529E-002
(PID.TID 0000.0001)     Wall clock time:  0.11629915237426758
(PID.TID 0000.0001)          No. starts:           1
(PID.TID 0000.0001)           No. stops:           1
(PID.TID 0000.0001)   Seconds in section "MAIN LOOP           [THE_MAIN_LOOP]":
(PID.TID 0000.0001)           User time:  0.65199602395296097
(PID.TID 0000.0001)         System time:   3.9948001503944397E-002
(PID.TID 0000.0001)     Wall clock time:  0.70914101600646973
(PID.TID 0000.0001)          No. starts:           1
(PID.TID 0000.0001)           No. stops:           1
(PID.TID 0000.0001)   Seconds in section "MAIN_DO_LOOP        [THE_MAIN_LOOP]":
(PID.TID 0000.0001)           User time:  0.65196898579597473
(PID.TID 0000.0001)         System time:   3.9947003126144409E-002
(PID.TID 0000.0001)     Wall clock time:  0.70911431312561035
(PID.TID 0000.0001)          No. starts:           4
(PID.TID 0000.0001)           No. stops:           4
(PID.TID 0000.0001)   Seconds in section "FORWARD_STEP        [MAIN_DO_LOOP]":
(PID.TID 0000.0001)           User time:  0.65192300081253052
(PID.TID 0000.0001)         System time:   3.9944007992744446E-002
(PID.TID 0000.0001)     Wall clock time:  0.70906615257263184
(PID.TID 0000.0001)          No. starts:           4
(PID.TID 0000.0001)           No. stops:           4
(PID.TID 0000.0001)   Seconds in section "DO_STATEVARS_DIAGS  [FORWARD_STEP]":
(PID.TID 0000.0001)           User time:   3.1303614377975464E-004
(PID.TID 0000.0001)         System time:   1.6994774341583252E-005
(PID.TID 0000.0001)     Wall clock time:   3.3068656921386719E-004
(PID.TID 0000.0001)          No. starts:           8
(PID.TID 0000.0001)           No. stops:           8
(PID.TID 0000.0001)   Seconds in section "LOAD_FIELDS_DRIVER  [FORWARD_STEP]":
(PID.TID 0000.0001)           User time:   1.7388001084327698E-002
(PID.TID 0000.0001)         System time:   3.1820014119148254E-003
(PID.TID 0000.0001)     Wall clock time:   2.5909900665283203E-002
(PID.TID 0000.0001)          No. starts:           4
(PID.TID 0000.0001)           No. stops:           4
(PID.TID 0000.0001)   Seconds in section "EXF_GETFORCING     [LOAD_FLDS_DRIVER]":
(PID.TID 0000.0001)           User time:   1.6533069312572479E-002
(PID.TID 0000.0001)         System time:   2.6379972696304321E-003
(PID.TID 0000.0001)     Wall clock time:   2.3808240890502930E-002
(PID.TID 0000.0001)          No. starts:           4
(PID.TID 0000.0001)           No. stops:           4
(PID.TID 0000.0001)   Seconds in section "EXTERNAL_FLDS_LOAD [LOAD_FLDS_DRIVER]":
(PID.TID 0000.0001)           User time:   2.1099299192428589E-004
(PID.TID 0000.0001)         System time:   4.9993395805358887E-006
(PID.TID 0000.0001)     Wall clock time:   2.1481513977050781E-004
(PID.TID 0000.0001)          No. starts:           4
(PID.TID 0000.0001)           No. stops:           4
(PID.TID 0000.0001)   Seconds in section "DO_ATMOSPHERIC_PHYS [FORWARD_STEP]":
(PID.TID 0000.0001)           User time:   2.3029744625091553E-005
(PID.TID 0000.0001)         System time:   2.0042061805725098E-006
(PID.TID 0000.0001)     Wall clock time:   2.5749206542968750E-005
(PID.TID 0000.0001)          No. starts:           4
(PID.TID 0000.0001)           No. stops:           4
(PID.TID 0000.0001)   Seconds in section "DO_OCEANIC_PHYS     [FORWARD_STEP]":
(PID.TID 0000.0001)           User time:   8.9412927627563477E-002
(PID.TID 0000.0001)         System time:   1.9009932875633240E-003
(PID.TID 0000.0001)     Wall clock time:   9.1423988342285156E-002
(PID.TID 0000.0001)          No. starts:           4
(PID.TID 0000.0001)           No. stops:           4
(PID.TID 0000.0001)   Seconds in section "GGL90_CALC [DO_OCEANIC_PHYS]":
(PID.TID 0000.0001)           User time:   2.6777014136314392E-002
(PID.TID 0000.0001)         System time:   1.3759955763816833E-003
(PID.TID 0000.0001)     Wall clock time:   2.8156757354736328E-002
(PID.TID 0000.0001)          No. starts:          16
(PID.TID 0000.0001)           No. stops:          16
(PID.TID 0000.0001)   Seconds in section "GCHEM_CALC_TENDENCY [FORWARD_STEP]":
(PID.TID 0000.0001)           User time:   3.0994415283203125E-005
(PID.TID 0000.0001)         System time:   9.9837779998779297E-007
(PID.TID 0000.0001)     Wall clock time:   3.1948089599609375E-005
(PID.TID 0000.0001)          No. starts:           4
(PID.TID 0000.0001)           No. stops:           4
(PID.TID 0000.0001)   Seconds in section "THERMODYNAMICS      [FORWARD_STEP]":
(PID.TID 0000.0001)           User time:  0.32267306745052338
(PID.TID 0000.0001)         System time:   1.5929937362670898E-003
(PID.TID 0000.0001)     Wall clock time:  0.32484102249145508
(PID.TID 0000.0001)          No. starts:           4
(PID.TID 0000.0001)           No. stops:           4
(PID.TID 0000.0001)   Seconds in section "DYNAMICS            [FORWARD_STEP]":
(PID.TID 0000.0001)           User time:   9.1249033808708191E-002
(PID.TID 0000.0001)         System time:   1.3180002570152283E-003
(PID.TID 0000.0001)     Wall clock time:   9.2825889587402344E-002
(PID.TID 0000.0001)          No. starts:           4
(PID.TID 0000.0001)           No. stops:           4
(PID.TID 0000.0001)   Seconds in section "SOLVE_FOR_PRESSURE  [FORWARD_STEP]":
(PID.TID 0000.0001)           User time:   8.8559687137603760E-003
(PID.TID 0000.0001)         System time:   7.4997544288635254E-005
(PID.TID 0000.0001)     Wall clock time:   8.9960098266601562E-003
(PID.TID 0000.0001)          No. starts:           4
(PID.TID 0000.0001)           No. stops:           4
(PID.TID 0000.0001)   Seconds in section "MOM_CORRECTION_STEP [FORWARD_STEP]":
(PID.TID 0000.0001)           User time:   2.7389675378799438E-003
(PID.TID 0000.0001)         System time:   9.9986791610717773E-006
(PID.TID 0000.0001)     Wall clock time:   2.7809143066406250E-003
(PID.TID 0000.0001)          No. starts:           4
(PID.TID 0000.0001)           No. stops:           4
(PID.TID 0000.0001)   Seconds in section "INTEGR_CONTINUITY   [FORWARD_STEP]":
(PID.TID 0000.0001)           User time:   2.4190545082092285E-003
(PID.TID 0000.0001)         System time:   3.6992132663726807E-005
(PID.TID 0000.0001)     Wall clock time:   2.5138854980468750E-003
(PID.TID 0000.0001)          No. starts:           4
(PID.TID 0000.0001)           No. stops:           4
(PID.TID 0000.0001)   Seconds in section "TRC_CORRECTION_STEP [FORWARD_STEP]":
(PID.TID 0000.0001)           User time:   2.4974346160888672E-005
(PID.TID 0000.0001)         System time:   3.0025839805603027E-006
(PID.TID 0000.0001)     Wall clock time:   2.6226043701171875E-005
(PID.TID 0000.0001)          No. starts:           4
(PID.TID 0000.0001)           No. stops:           4
(PID.TID 0000.0001)   Seconds in section "GCHEM_FORCING_SEP  [FORWARD_STEP]":
(PID.TID 0000.0001)           User time:   3.7358030676841736E-002
(PID.TID 0000.0001)         System time:   1.0459870100021362E-003
(PID.TID 0000.0001)     Wall clock time:   3.8444995880126953E-002
(PID.TID 0000.0001)          No. starts:           4
(PID.TID 0000.0001)           No. stops:           4
(PID.TID 0000.0001)   Seconds in section "BLOCKING_EXCHANGES  [FORWARD_STEP]":
(PID.TID 0000.0001)           User time:   6.4009577035903931E-003
(PID.TID 0000.0001)         System time:   1.2986361980438232E-005
(PID.TID 0000.0001)     Wall clock time:   6.4198970794677734E-003
(PID.TID 0000.0001)          No. starts:           4
(PID.TID 0000.0001)           No. stops:           4
(PID.TID 0000.0001)   Seconds in section "DO_STATEVARS_TAVE   [FORWARD_STEP]":
(PID.TID 0000.0001)           User time:   1.4698952436447144E-002
(PID.TID 0000.0001)         System time:   2.3990869522094727E-005
(PID.TID 0000.0001)     Wall clock time:   1.4754056930541992E-002
(PID.TID 0000.0001)          No. starts:           4
(PID.TID 0000.0001)           No. stops:           4
(PID.TID 0000.0001)   Seconds in section "MONITOR             [FORWARD_STEP]":
(PID.TID 0000.0001)           User time:   2.6130020618438721E-002
(PID.TID 0000.0001)         System time:   1.5901774168014526E-004
(PID.TID 0000.0001)     Wall clock time:   2.6368141174316406E-002
(PID.TID 0000.0001)          No. starts:           4
(PID.TID 0000.0001)           No. stops:           4
(PID.TID 0000.0001)   Seconds in section "DO_THE_MODEL_IO     [FORWARD_STEP]":
(PID.TID 0000.0001)           User time:   2.3589938879013062E-002
(PID.TID 0000.0001)         System time:   1.1494994163513184E-002
(PID.TID 0000.0001)     Wall clock time:   4.1363954544067383E-002
(PID.TID 0000.0001)          No. starts:           4
(PID.TID 0000.0001)           No. stops:           4
(PID.TID 0000.0001)   Seconds in section "PTRACERS_RESET      [FORWARD_STEP]":
(PID.TID 0000.0001)           User time:   2.8967857360839844E-005
(PID.TID 0000.0001)         System time:   3.0025839805603027E-006
(PID.TID 0000.0001)     Wall clock time:   3.0040740966796875E-005
(PID.TID 0000.0001)          No. starts:           4
(PID.TID 0000.0001)           No. stops:           4
(PID.TID 0000.0001)   Seconds in section "DO_WRITE_PICKUP     [FORWARD_STEP]":
(PID.TID 0000.0001)           User time:   8.0909132957458496E-003
(PID.TID 0000.0001)         System time:   1.8985003232955933E-002
(PID.TID 0000.0001)     Wall clock time:   3.1468152999877930E-002
(PID.TID 0000.0001)          No. starts:           4
(PID.TID 0000.0001)           No. stops:           4
(PID.TID 0000.0001) // ======================================================
(PID.TID 0000.0001) // Tile <-> Tile communication statistics
(PID.TID 0000.0001) // ======================================================
(PID.TID 0000.0001) // o Tile number: 000001
(PID.TID 0000.0001) //         No. X exchanges =              0
(PID.TID 0000.0001) //            Max. X spins =              0
(PID.TID 0000.0001) //            Min. X spins =     1000000000
(PID.TID 0000.0001) //          Total. X spins =              0
(PID.TID 0000.0001) //            Avg. X spins =       0.00E+00
(PID.TID 0000.0001) //         No. Y exchanges =              0
(PID.TID 0000.0001) //            Max. Y spins =              0
(PID.TID 0000.0001) //            Min. Y spins =     1000000000
(PID.TID 0000.0001) //          Total. Y spins =              0
(PID.TID 0000.0001) //            Avg. Y spins =       0.00E+00
(PID.TID 0000.0001) // o Tile number: 000002
(PID.TID 0000.0001) //         No. X exchanges =              0
(PID.TID 0000.0001) //            Max. X spins =              0
(PID.TID 0000.0001) //            Min. X spins =     1000000000
(PID.TID 0000.0001) //          Total. X spins =              0
(PID.TID 0000.0001) //            Avg. X spins =       0.00E+00
(PID.TID 0000.0001) //         No. Y exchanges =              0
(PID.TID 0000.0001) //            Max. Y spins =              0
(PID.TID 0000.0001) //            Min. Y spins =     1000000000
(PID.TID 0000.0001) //          Total. Y spins =              0
(PID.TID 0000.0001) //            Avg. Y spins =       0.00E+00
(PID.TID 0000.0001) // o Tile number: 000003
(PID.TID 0000.0001) //         No. X exchanges =              0
(PID.TID 0000.0001) //            Max. X spins =              0
(PID.TID 0000.0001) //            Min. X spins =     1000000000
(PID.TID 0000.0001) //          Total. X spins =              0
(PID.TID 0000.0001) //            Avg. X spins =       0.00E+00
(PID.TID 0000.0001) //         No. Y exchanges =              0
(PID.TID 0000.0001) //            Max. Y spins =              0
(PID.TID 0000.0001) //            Min. Y spins =     1000000000
(PID.TID 0000.0001) //          Total. Y spins =              0
(PID.TID 0000.0001) //            Avg. Y spins =       0.00E+00
(PID.TID 0000.0001) // o Tile number: 000004
(PID.TID 0000.0001) //         No. X exchanges =              0
(PID.TID 0000.0001) //            Max. X spins =              0
(PID.TID 0000.0001) //            Min. X spins =     1000000000
(PID.TID 0000.0001) //          Total. X spins =              0
(PID.TID 0000.0001) //            Avg. X spins =       0.00E+00
(PID.TID 0000.0001) //         No. Y exchanges =              0
(PID.TID 0000.0001) //            Max. Y spins =              0
(PID.TID 0000.0001) //            Min. Y spins =     1000000000
(PID.TID 0000.0001) //          Total. Y spins =              0
(PID.TID 0000.0001) //            Avg. Y spins =       0.00E+00
(PID.TID 0000.0001) // o Thread number: 000001
(PID.TID 0000.0001) //            No. barriers =           4314
(PID.TID 0000.0001) //      Max. barrier spins =              1
(PID.TID 0000.0001) //      Min. barrier spins =              1
(PID.TID 0000.0001) //     Total barrier spins =           4314
(PID.TID 0000.0001) //      Avg. barrier spins =       1.00E+00
PROGRAM MAIN: Execution ended Normally
