(PID.TID 0000.0001) 
(PID.TID 0000.0001) // ======================================================
(PID.TID 0000.0001) //                      MITgcm UV
(PID.TID 0000.0001) //                      =========
(PID.TID 0000.0001) // ======================================================
(PID.TID 0000.0001) // execution environment starting up...
(PID.TID 0000.0001) 
(PID.TID 0000.0001) // MITgcmUV version:  checkpoint66l
(PID.TID 0000.0001) // Build user:        dmenemen
(PID.TID 0000.0001) // Build host:        triton
(PID.TID 0000.0001) // Build date:        Wed Jan 22 17:24:31 PST 2020
(PID.TID 0000.0001) 
(PID.TID 0000.0001) // =======================================================
(PID.TID 0000.0001) // Execution Environment parameter file "eedata"
(PID.TID 0000.0001) // =======================================================
(PID.TID 0000.0001) ># Example "eedata" file
(PID.TID 0000.0001) ># Lines beginning "#" are comments
(PID.TID 0000.0001) ># nTx - No. threads per process in X
(PID.TID 0000.0001) ># nTy - No. threads per process in Y
(PID.TID 0000.0001) > &EEPARMS
(PID.TID 0000.0001) > nTx=1,
(PID.TID 0000.0001) > nTy=1,
(PID.TID 0000.0001) > /
(PID.TID 0000.0001) ># Note: Some systems use & as the
(PID.TID 0000.0001) ># namelist terminator. Other systems
(PID.TID 0000.0001) ># use a / character (as shown here).
(PID.TID 0000.0001) 
(PID.TID 0000.0001) // =======================================================
(PID.TID 0000.0001) // Computational Grid Specification ( see files "SIZE.h" )
(PID.TID 0000.0001) //                                  ( and "eedata"       )
(PID.TID 0000.0001) // =======================================================
(PID.TID 0000.0001)      nPx =    1 ; /* No. processes in X */
(PID.TID 0000.0001)      nPy =    1 ; /* No. processes in Y */
(PID.TID 0000.0001)      nSx =    2 ; /* No. tiles in X per process */
(PID.TID 0000.0001)      nSy =    2 ; /* No. tiles in Y per process */
(PID.TID 0000.0001)      sNx =   64 ; /* Tile size in X */
(PID.TID 0000.0001)      sNy =   32 ; /* Tile size in Y */
(PID.TID 0000.0001)      OLx =    4 ; /* Tile overlap distance in X */
(PID.TID 0000.0001)      OLy =    4 ; /* Tile overlap distance in Y */
(PID.TID 0000.0001)      nTx =    1 ; /* No. threads in X per process */
(PID.TID 0000.0001)      nTy =    1 ; /* No. threads in Y per process */
(PID.TID 0000.0001)       Nr =   15 ; /* No. levels in the vertical   */
(PID.TID 0000.0001)       Nx =  128 ; /* Total domain size in X ( = nPx*nSx*sNx ) */
(PID.TID 0000.0001)       Ny =   64 ; /* Total domain size in Y ( = nPy*nSy*sNy ) */
(PID.TID 0000.0001)   nTiles =    4 ; /* Total no. tiles per process ( = nSx*nSy ) */
(PID.TID 0000.0001)   nProcs =    1 ; /* Total no. processes ( = nPx*nPy ) */
(PID.TID 0000.0001) nThreads =    1 ; /* Total no. threads per process ( = nTx*nTy ) */
(PID.TID 0000.0001) usingMPI =    F ; /* Flag used to control whether MPI is in use */
(PID.TID 0000.0001)                   /*  note: To execute a program with MPI calls */
(PID.TID 0000.0001)                   /*  it must be launched appropriately e.g     */
(PID.TID 0000.0001)                   /*  "mpirun -np 64 ......"                    */
(PID.TID 0000.0001) useCoupler=    F ;/* Flag used to control communications with   */
(PID.TID 0000.0001)                   /*  other model components, through a coupler */
(PID.TID 0000.0001) debugMode =    F ; /* print debug msg. (sequence of S/R calls)  */
(PID.TID 0000.0001) printMapIncludesZeros=    F ; /* print zeros in Std.Output maps */
(PID.TID 0000.0001) maxLengthPrt1D=   65 /* maxLength of 1D array printed to StdOut */
(PID.TID 0000.0001) 
(PID.TID 0000.0001) // ======================================================
(PID.TID 0000.0001) // Mapping of tiles to threads
(PID.TID 0000.0001) // ======================================================
(PID.TID 0000.0001) // -o- Thread   1, tiles (   1:   2,   1:   2)
(PID.TID 0000.0001) 
(PID.TID 0000.0001) // ======================================================
(PID.TID 0000.0001) // Tile <-> Tile connectvity table
(PID.TID 0000.0001) // ======================================================
(PID.TID 0000.0001) // Tile number: 000001 (process no. = 000000)
(PID.TID 0000.0001) //        WEST: Tile = 000002, Process = 000000, Comm = put
(PID.TID 0000.0001) //                bi = 000002, bj = 000001
(PID.TID 0000.0001) //        EAST: Tile = 000002, Process = 000000, Comm = put
(PID.TID 0000.0001) //                bi = 000002, bj = 000001
(PID.TID 0000.0001) //       SOUTH: Tile = 000003, Process = 000000, Comm = put
(PID.TID 0000.0001) //                bi = 000001, bj = 000002
(PID.TID 0000.0001) //       NORTH: Tile = 000003, Process = 000000, Comm = put
(PID.TID 0000.0001) //                bi = 000001, bj = 000002
(PID.TID 0000.0001) // Tile number: 000002 (process no. = 000000)
(PID.TID 0000.0001) //        WEST: Tile = 000001, Process = 000000, Comm = put
(PID.TID 0000.0001) //                bi = 000001, bj = 000001
(PID.TID 0000.0001) //        EAST: Tile = 000001, Process = 000000, Comm = put
(PID.TID 0000.0001) //                bi = 000001, bj = 000001
(PID.TID 0000.0001) //       SOUTH: Tile = 000004, Process = 000000, Comm = put
(PID.TID 0000.0001) //                bi = 000002, bj = 000002
(PID.TID 0000.0001) //       NORTH: Tile = 000004, Process = 000000, Comm = put
(PID.TID 0000.0001) //                bi = 000002, bj = 000002
(PID.TID 0000.0001) // Tile number: 000003 (process no. = 000000)
(PID.TID 0000.0001) //        WEST: Tile = 000004, Process = 000000, Comm = put
(PID.TID 0000.0001) //                bi = 000002, bj = 000002
(PID.TID 0000.0001) //        EAST: Tile = 000004, Process = 000000, Comm = put
(PID.TID 0000.0001) //                bi = 000002, bj = 000002
(PID.TID 0000.0001) //       SOUTH: Tile = 000001, Process = 000000, Comm = put
(PID.TID 0000.0001) //                bi = 000001, bj = 000001
(PID.TID 0000.0001) //       NORTH: Tile = 000001, Process = 000000, Comm = put
(PID.TID 0000.0001) //                bi = 000001, bj = 000001
(PID.TID 0000.0001) // Tile number: 000004 (process no. = 000000)
(PID.TID 0000.0001) //        WEST: Tile = 000003, Process = 000000, Comm = put
(PID.TID 0000.0001) //                bi = 000001, bj = 000002
(PID.TID 0000.0001) //        EAST: Tile = 000003, Process = 000000, Comm = put
(PID.TID 0000.0001) //                bi = 000001, bj = 000002
(PID.TID 0000.0001) //       SOUTH: Tile = 000002, Process = 000000, Comm = put
(PID.TID 0000.0001) //                bi = 000002, bj = 000001
(PID.TID 0000.0001) //       NORTH: Tile = 000002, Process = 000000, Comm = put
(PID.TID 0000.0001) //                bi = 000002, bj = 000001
(PID.TID 0000.0001) 
(PID.TID 0000.0001)  INI_PARMS: opening model parameter file "data"
(PID.TID 0000.0001)  OPEN_COPY_DATA_FILE: opening file data
(PID.TID 0000.0001) // =======================================================
(PID.TID 0000.0001) // Parameter file "data"
(PID.TID 0000.0001) // =======================================================
(PID.TID 0000.0001) ># ====================
(PID.TID 0000.0001) ># | Model parameters |
(PID.TID 0000.0001) ># ====================
(PID.TID 0000.0001) >#
(PID.TID 0000.0001) ># Continuous equation parameters
(PID.TID 0000.0001) > &PARM01
(PID.TID 0000.0001) > tRef=15*20.,
(PID.TID 0000.0001) > sRef=15*35.,
(PID.TID 0000.0001) > viscA4=0.,
(PID.TID 0000.0001) > viscAh=2.E5,
(PID.TID 0000.0001) > diffKhT=0.E3,
(PID.TID 0000.0001) > diffKhS=0.E3,
(PID.TID 0000.0001) > viscAz=1.E-3,
(PID.TID 0000.0001) > diffKrBL79surf= 3.E-5,
(PID.TID 0000.0001) > diffKrBL79deep= 13.E-5,
(PID.TID 0000.0001) > diffKrBL79Ho  = -2000.,
(PID.TID 0000.0001) > diffKrBL79scl = 150.,
(PID.TID 0000.0001) > gravity=9.81,
(PID.TID 0000.0001) > rhoConst=1035.,
(PID.TID 0000.0001) > rhoConstFresh=1000.,
(PID.TID 0000.0001) > implicitFreeSurface=.TRUE.,
(PID.TID 0000.0001) > eosType='JMD95Z',
(PID.TID 0000.0001) > implicitDiffusion=.TRUE.,
(PID.TID 0000.0001) > implicitViscosity=.TRUE.,
(PID.TID 0000.0001) > ivdc_kappa=100.,
(PID.TID 0000.0001) > useSingleCpuIO=.TRUE.,
(PID.TID 0000.0001) > tempAdvScheme=2,
(PID.TID 0000.0001) > saltAdvScheme=2,
(PID.TID 0000.0001) ># turn on looped cells
(PID.TID 0000.0001) > hFacMin=.1,
(PID.TID 0000.0001) > hFacMindz=50.,
(PID.TID 0000.0001) > useCDscheme=.TRUE.,
(PID.TID 0000.0001) > debugLevel=5,
(PID.TID 0000.0001) > /
(PID.TID 0000.0001) >
(PID.TID 0000.0001) ># Elliptic solver parameters
(PID.TID 0000.0001) > &PARM02
(PID.TID 0000.0001) > cg2dMaxIters=1000,
(PID.TID 0000.0001) > cg2dTargetResidual=1.E-13,
(PID.TID 0000.0001) > /
(PID.TID 0000.0001) >
(PID.TID 0000.0001) ># Time stepping parameters
(PID.TID 0000.0001) > &PARM03
(PID.TID 0000.0001) > nIter0=0,
(PID.TID 0000.0001) > nTimeSteps = 4,
(PID.TID 0000.0001) > deltaTmom  = 900.,
(PID.TID 0000.0001) > tauCD =     321428.,
(PID.TID 0000.0001) > forcing_In_AB=.FALSE.,
(PID.TID 0000.0001) > momDissip_In_AB=.FALSE.,
(PID.TID 0000.0001) > pChkptFreq = 216000.,
(PID.TID 0000.0001) > periodicExternalForcing=.TRUE.,
(PID.TID 0000.0001) > externForcingPeriod=2592000.,
(PID.TID 0000.0001) > externForcingCycle=31104000.,
(PID.TID 0000.0001) > monitorFreq= 1.,
(PID.TID 0000.0001) > /
(PID.TID 0000.0001) >
(PID.TID 0000.0001) ># Gridding parameters
(PID.TID 0000.0001) > &PARM04
(PID.TID 0000.0001) > usingSphericalPolarGrid=.TRUE.,
(PID.TID 0000.0001) > delZ=  50., 70.,  100., 140., 190.,
(PID.TID 0000.0001) >       240., 290., 340., 390., 440.,
(PID.TID 0000.0001) >       490., 540., 590., 640., 690.,
(PID.TID 0000.0001) > ygOrigin=-90.,
(PID.TID 0000.0001) > delX=128*2.8125,
(PID.TID 0000.0001) > delY=64*2.8125,
(PID.TID 0000.0001) > /
(PID.TID 0000.0001) >
(PID.TID 0000.0001) ># Input datasets
(PID.TID 0000.0001) > &PARM05
(PID.TID 0000.0001) > bathyFile       = 'bathy.bin',
(PID.TID 0000.0001) > hydrogThetaFile = 'Theta.0005184000',
(PID.TID 0000.0001) > hydrogSaltFile  = 'Salt.0005184000',
(PID.TID 0000.0001) > uVelInitFile    = 'Uvel.0005184000',
(PID.TID 0000.0001) > vVelInitFile    = 'Vvel.0005184000',
(PID.TID 0000.0001) > pSurfInitFile   = 'Eta.0005184000',
(PID.TID 0000.0001) > /
(PID.TID 0000.0001) 
(PID.TID 0000.0001)  INI_PARMS ; starts to read PARM01
(PID.TID 0000.0001)  INI_PARMS ; read PARM01 : OK
(PID.TID 0000.0001)  INI_PARMS ; starts to read PARM02
(PID.TID 0000.0001)  INI_PARMS ; read PARM02 : OK
(PID.TID 0000.0001)  INI_PARMS ; starts to read PARM03
(PID.TID 0000.0001)  INI_PARMS ; read PARM03 : OK
(PID.TID 0000.0001)  INI_PARMS ; starts to read PARM04
(PID.TID 0000.0001)  INI_PARMS ; read PARM04 : OK
(PID.TID 0000.0001)  INI_PARMS ; starts to read PARM05
(PID.TID 0000.0001)  INI_PARMS ; read PARM05 : OK
(PID.TID 0000.0001)  INI_PARMS: finished reading file "data"
(PID.TID 0000.0001)  PACKAGES_BOOT: opening data.pkg
(PID.TID 0000.0001)  OPEN_COPY_DATA_FILE: opening file data.pkg
(PID.TID 0000.0001) // =======================================================
(PID.TID 0000.0001) // Parameter file "data.pkg"
(PID.TID 0000.0001) // =======================================================
(PID.TID 0000.0001) ># Packages
(PID.TID 0000.0001) > &PACKAGES
(PID.TID 0000.0001) > useEXF        = .TRUE.,
(PID.TID 0000.0001) > useCAL        = .TRUE.,
(PID.TID 0000.0001) > useGMRedi     = .TRUE.,
(PID.TID 0000.0001) > useSeaice     = .TRUE.,
(PID.TID 0000.0001) > useGGL90      = .TRUE.,
(PID.TID 0000.0001) > useSALT_PlUME =.TRUE.,
(PID.TID 0000.0001) > useDiagnostics=.TRUE.,
(PID.TID 0000.0001) > usePTRACERS   = .TRUE.,
(PID.TID 0000.0001) > useGCHEM      = .TRUE.,
(PID.TID 0000.0001) > /
(PID.TID 0000.0001) 
(PID.TID 0000.0001)  PACKAGES_BOOT: finished reading data.pkg
(PID.TID 0000.0001)  PACKAGES_BOOT: On/Off package Summary
 --------  pkgs with a standard "usePKG" On/Off switch in "data.pkg":  --------
 pkg/ggl90                compiled   and   used ( useGGL90                 = T )
 pkg/gmredi               compiled   and   used ( useGMRedi                = T )
 pkg/cal                  compiled   and   used ( useCAL                   = T )
 pkg/exf                  compiled   and   used ( useEXF                   = T )
 pkg/ptracers             compiled   and   used ( usePTRACERS              = T )
 pkg/gchem                compiled   and   used ( useGCHEM                 = T )
 pkg/seaice               compiled   and   used ( useSEAICE                = T )
 pkg/salt_plume           compiled   and   used ( useSALT_PLUME            = T )
 pkg/diagnostics          compiled   and   used ( useDiagnostics           = T )
 -------- pkgs without standard "usePKG" On/Off switch in "data.pkg":  --------
 pkg/generic_advdiff      compiled   and   used ( useGAD                   = T )
 pkg/mom_common           compiled   and   used ( momStepping              = T )
 pkg/mom_vecinv           compiled but not used ( +vectorInvariantMomentum = F )
 pkg/mom_fluxform         compiled   and   used ( & not vectorInvariantMom = T )
 pkg/cd_code              compiled   and   used ( useCDscheme              = T )
 pkg/monitor              compiled   and   used ( monitorFreq > 0.         = T )
 pkg/debug                compiled but not used ( debugMode                = F )
 pkg/rw                   compiled   and   used
 pkg/mdsio                compiled   and   used
(PID.TID 0000.0001)  PACKAGES_BOOT: End of package Summary
(PID.TID 0000.0001) 
(PID.TID 0000.0001) CAL_READPARMS: opening data.cal
(PID.TID 0000.0001)  OPEN_COPY_DATA_FILE: opening file data.cal
(PID.TID 0000.0001) // =======================================================
(PID.TID 0000.0001) // Parameter file "data.cal"
(PID.TID 0000.0001) // =======================================================
(PID.TID 0000.0001) >#
(PID.TID 0000.0001) ># *******************
(PID.TID 0000.0001) ># Calendar Parameters
(PID.TID 0000.0001) ># *******************
(PID.TID 0000.0001) > &CAL_NML
(PID.TID 0000.0001) > TheCalendar='gregorian',
(PID.TID 0000.0001) > startDate_1=19920101,
(PID.TID 0000.0001) ># startDate_2=120000,
(PID.TID 0000.0001) > startDate_2=000000,
(PID.TID 0000.0001) > calendarDumps = .TRUE.,
(PID.TID 0000.0001) > /
(PID.TID 0000.0001) 
(PID.TID 0000.0001) CAL_READPARMS: finished reading data.cal
(PID.TID 0000.0001) EXF_READPARMS: opening data.exf
(PID.TID 0000.0001)  OPEN_COPY_DATA_FILE: opening file data.exf
(PID.TID 0000.0001) // =======================================================
(PID.TID 0000.0001) // Parameter file "data.exf"
(PID.TID 0000.0001) // =======================================================
(PID.TID 0000.0001) ># *********************
(PID.TID 0000.0001) ># External Forcing Data
(PID.TID 0000.0001) ># *********************
(PID.TID 0000.0001) >#
(PID.TID 0000.0001) > &EXF_NML_01
(PID.TID 0000.0001) >#
(PID.TID 0000.0001) > useAtmWind        = .TRUE.,
(PID.TID 0000.0001) >#NCEP VALUES:
(PID.TID 0000.0001) ># exf_albedo        = 0.15,
(PID.TID 0000.0001) ># exf_scal_BulkCdn  = 1.015,
(PID.TID 0000.0001) >#
(PID.TID 0000.0001) >#TO COMBINE WITH ALLOW_ZENITH_ANGLE:
(PID.TID 0000.0001) > exf_albedo        = 0.1,
(PID.TID 0000.0001) > useExfZenIncoming = .TRUE.,
(PID.TID 0000.0001) > select_ZenAlbedo  = 1,
(PID.TID 0000.0001) >#
(PID.TID 0000.0001) > ocean_emissivity = 0.97,
(PID.TID 0000.0001) > ice_emissivity = 0.95,
(PID.TID 0000.0001) > snow_emissivity = 0.95,
(PID.TID 0000.0001) >#
(PID.TID 0000.0001) > exf_iprec         = 32,
(PID.TID 0000.0001) > exf_yftype        = 'RL',
(PID.TID 0000.0001) > useExfYearlyFields= .FALSE.,
(PID.TID 0000.0001) > useExfCheckRange  = .FALSE.,
(PID.TID 0000.0001) > /
(PID.TID 0000.0001) >#
(PID.TID 0000.0001) > &EXF_NML_02
(PID.TID 0000.0001) > atempfile         = 'EIG_tmp2m_degC_plus_ECCO_v4r1_ctrl_2000',
(PID.TID 0000.0001) > aqhfile           = 'EIG_spfh2m_plus_ECCO_v4r1_ctrl_2000',
(PID.TID 0000.0001) > precipfile        = 'EIG_rain_plus_ECCO_v4r1_ctrl_2000',
(PID.TID 0000.0001) > uwindfile         = 'EIG_u10m_2000',
(PID.TID 0000.0001) > vwindfile         = 'EIG_v10m_2000',
(PID.TID 0000.0001) > swdownfile        = 'EIG_dsw_plus_ECCO_v4r1_ctrl_2000',
(PID.TID 0000.0001) > lwdownfile        = 'EIG_dlw_plus_ECCO_v4r1_ctrl_2000',
(PID.TID 0000.0001) > runofffile        = 'runoff-2d-Fekete-1deg-mon-V4-SMOOTH.bin',
(PID.TID 0000.0001) > apco2file         = 'apCO2_2000',
(PID.TID 0000.0001) >#
(PID.TID 0000.0001) > atempperiod       = -12.,
(PID.TID 0000.0001) > aqhperiod         = -12.,
(PID.TID 0000.0001) > precipperiod      = -12.,
(PID.TID 0000.0001) > uwindperiod       = -12.,
(PID.TID 0000.0001) > vwindperiod       = -12.,
(PID.TID 0000.0001) > swdownperiod      = -12.,
(PID.TID 0000.0001) > lwdownperiod      = -12.,
(PID.TID 0000.0001) > runoffperiod      = -12,
(PID.TID 0000.0001) > apco2period       = -12.,
(PID.TID 0000.0001) > /
(PID.TID 0000.0001) >#
(PID.TID 0000.0001) > &EXF_NML_03
(PID.TID 0000.0001) >#NOT FOR EIG exf_offset_atemp  = 273.3971,
(PID.TID 0000.0001) > exf_offset_atemp  = 273.15,
(PID.TID 0000.0001) >#NOT FOR NEW RUNOFF FIELD exf_inscal_runoff = 3.1710e-08,
(PID.TID 0000.0001) > exf_inscal_swdown = -1.0,
(PID.TID 0000.0001) > exf_inscal_lwdown = -1.0,
(PID.TID 0000.0001) ># to compensate for sea level rise for nlfs/realFWF
(PID.TID 0000.0001) >#precip_exfremo_intercept = 1.073E-9,
(PID.TID 0000.0001) >#precip_exfremo_slope = -3.340E-18,
(PID.TID 0000.0001) > /
(PID.TID 0000.0001) >#
(PID.TID 0000.0001) > &EXF_NML_04
(PID.TID 0000.0001) >#
(PID.TID 0000.0001) > atemp_lon0      = -178.5,
(PID.TID 0000.0001) > atemp_lon_inc   = 3.0,
(PID.TID 0000.0001) > atemp_lat0      = -88.5,
(PID.TID 0000.0001) > atemp_lat_inc   = 59*3.0,
(PID.TID 0000.0001) > atemp_nlon      = 120,
(PID.TID 0000.0001) > atemp_nlat      = 60,
(PID.TID 0000.0001) >#
(PID.TID 0000.0001) > aqh_lon0        = -178.5,
(PID.TID 0000.0001) > aqh_lon_inc     = 3.0,
(PID.TID 0000.0001) > aqh_lat0        = -88.5,
(PID.TID 0000.0001) > aqh_lat_inc     = 59*3.0,
(PID.TID 0000.0001) > aqh_nlon        = 120,
(PID.TID 0000.0001) > aqh_nlat        = 60,
(PID.TID 0000.0001) >#
(PID.TID 0000.0001) > precip_lon0     = -178.5,
(PID.TID 0000.0001) > precip_lon_inc  = 3.0,
(PID.TID 0000.0001) > precip_lat0     = -88.5,
(PID.TID 0000.0001) > precip_lat_inc  = 59*3.0,
(PID.TID 0000.0001) > precip_nlon     = 120,
(PID.TID 0000.0001) > precip_nlat     = 60,
(PID.TID 0000.0001) >#
(PID.TID 0000.0001) > uwind_lon0      = -178.5,
(PID.TID 0000.0001) > uwind_lon_inc   = 3.0,
(PID.TID 0000.0001) > uwind_lat0      = -88.5,
(PID.TID 0000.0001) > uwind_lat_inc   = 59*3.0,
(PID.TID 0000.0001) > uwind_nlon      = 120,
(PID.TID 0000.0001) > uwind_nlat      = 60,
(PID.TID 0000.0001) >#
(PID.TID 0000.0001) > vwind_lon0      = -178.5,
(PID.TID 0000.0001) > vwind_lon_inc   = 3.0,
(PID.TID 0000.0001) > vwind_lat0      = -88.5,
(PID.TID 0000.0001) > vwind_lat_inc   = 59*3.0,
(PID.TID 0000.0001) > vwind_nlon      = 120,
(PID.TID 0000.0001) > vwind_nlat      = 60,
(PID.TID 0000.0001) >#
(PID.TID 0000.0001) > swdown_lon0     = -178.5,
(PID.TID 0000.0001) > swdown_lon_inc  = 3.0,
(PID.TID 0000.0001) > swdown_lat0     = -88.5,
(PID.TID 0000.0001) > swdown_lat_inc  = 59*3.0,
(PID.TID 0000.0001) > swdown_nlon     = 120,
(PID.TID 0000.0001) > swdown_nlat     = 60,
(PID.TID 0000.0001) >#
(PID.TID 0000.0001) > lwdown_lon0     = -178.5,
(PID.TID 0000.0001) > lwdown_lon_inc  = 3.0,
(PID.TID 0000.0001) > lwdown_lat0     = -88.5,
(PID.TID 0000.0001) > lwdown_lat_inc  = 59*3.0,
(PID.TID 0000.0001) > lwdown_nlon     = 120,
(PID.TID 0000.0001) > lwdown_nlat     = 60,
(PID.TID 0000.0001) >#
(PID.TID 0000.0001) > runoff_lon0     = -178.5,
(PID.TID 0000.0001) > runoff_lon_inc  = 3.0,
(PID.TID 0000.0001) > runoff_lat0     = -88.5,
(PID.TID 0000.0001) > runoff_lat_inc  = 59*3.0,
(PID.TID 0000.0001) > runoff_nlon     = 120,
(PID.TID 0000.0001) > runoff_nlat     = 60,
(PID.TID 0000.0001) >#
(PID.TID 0000.0001) > apco2_lon0      = -178.5,
(PID.TID 0000.0001) > apco2_lon_inc   = 3.0,
(PID.TID 0000.0001) > apco2_lat0      = -88.5,
(PID.TID 0000.0001) > apco2_lat_inc   = 59*3.0,
(PID.TID 0000.0001) > apco2_nlon      = 120,
(PID.TID 0000.0001) > apco2_nlat      = 60,
(PID.TID 0000.0001) > /
(PID.TID 0000.0001) 
(PID.TID 0000.0001) EXF_READPARMS: reading EXF_NML_01
(PID.TID 0000.0001) EXF_READPARMS: reading EXF_NML_02
(PID.TID 0000.0001) EXF_READPARMS: reading EXF_NML_03
(PID.TID 0000.0001) EXF_READPARMS: reading EXF_NML_04
(PID.TID 0000.0001) EXF_READPARMS: finished reading data.exf
(PID.TID 0000.0001)  GGL90_READPARMS: opening data.ggl90
(PID.TID 0000.0001)  OPEN_COPY_DATA_FILE: opening file data.ggl90
(PID.TID 0000.0001) // =======================================================
(PID.TID 0000.0001) // Parameter file "data.ggl90"
(PID.TID 0000.0001) // =======================================================
(PID.TID 0000.0001) ># =====================================================================
(PID.TID 0000.0001) ># | Parameters for Gaspar et al. (1990)'s TKE vertical mixing scheme  |
(PID.TID 0000.0001) ># =====================================================================
(PID.TID 0000.0001) > &GGL90_PARM01
(PID.TID 0000.0001) > GGL90alpha=30.,
(PID.TID 0000.0001) > GGL90TKEmin  = 1.e-7,
(PID.TID 0000.0001) > GGL90TKEbottom = 1.e-6,
(PID.TID 0000.0001) > mxlMaxFlag =2,
(PID.TID 0000.0001) > mxlSurfFlag=.TRUE.,
(PID.TID 0000.0001) > /
(PID.TID 0000.0001) 
(PID.TID 0000.0001)  GGL90_READPARMS ; starts to read GGL90_PARM01
(PID.TID 0000.0001)  GGL90_READPARMS: read GGL90_PARM01 : OK
(PID.TID 0000.0001)  GGL90_READPARMS: finished reading data.ggl90
(PID.TID 0000.0001) // =======================================================
(PID.TID 0000.0001) // GGL90 configuration
(PID.TID 0000.0001) // =======================================================
(PID.TID 0000.0001) GGL90dumpFreq =   /* GGL90 state write out interval ( s ). */
(PID.TID 0000.0001)                 0.000000000000000E+00
(PID.TID 0000.0001)     ;
(PID.TID 0000.0001) GGL90taveFreq =   /* GGL90 averaging interval ( s ). */
(PID.TID 0000.0001)                 0.000000000000000E+00
(PID.TID 0000.0001)     ;
(PID.TID 0000.0001) GGL90mixingMAPS =   /* GGL90 IO flag. */
(PID.TID 0000.0001)                   F
(PID.TID 0000.0001)     ;
(PID.TID 0000.0001) GGL90writeState =   /* GGL90 IO flag. */
(PID.TID 0000.0001)                   F
(PID.TID 0000.0001)     ;
(PID.TID 0000.0001) GGL90ck =   /* GGL90 viscosity parameter. */
(PID.TID 0000.0001)                 1.000000000000000E-01
(PID.TID 0000.0001)     ;
(PID.TID 0000.0001) GGL90ceps =   /* GGL90 dissipation parameter. */
(PID.TID 0000.0001)                 7.000000000000000E-01
(PID.TID 0000.0001)     ;
(PID.TID 0000.0001) GGL90alpha =   /* GGL90 TKE diffusivity parameter. */
(PID.TID 0000.0001)                 3.000000000000000E+01
(PID.TID 0000.0001)     ;
(PID.TID 0000.0001) GGL90m2 =   /* GGL90 wind stress to vertical stress ratio. */
(PID.TID 0000.0001)                 3.750000000000000E+00
(PID.TID 0000.0001)     ;
(PID.TID 0000.0001) GGL90TKEmin =   /* GGL90 minimum kinetic energy ( m^2/s^2 ). */
(PID.TID 0000.0001)                 1.000000000000000E-07
(PID.TID 0000.0001)     ;
(PID.TID 0000.0001) GGL90TKEsurfMin =   /* GGL90 minimum surface kinetic energy ( m^2/s^2 ). */
(PID.TID 0000.0001)                 1.000000000000000E-04
(PID.TID 0000.0001)     ;
(PID.TID 0000.0001) GGL90TKEbottom =   /* GGL90 bottom kinetic energy ( m^2/s^2 ). */
(PID.TID 0000.0001)                 1.000000000000000E-06
(PID.TID 0000.0001)     ;
(PID.TID 0000.0001) GGL90viscMax =   /* GGL90 upper limit for viscosity ( m^2/s ). */
(PID.TID 0000.0001)                 1.000000000000000E+02
(PID.TID 0000.0001)     ;
(PID.TID 0000.0001) GGL90diffMax =   /* GGL90 upper limit for diffusivity ( m^2/s ). */
(PID.TID 0000.0001)                 1.000000000000000E+02
(PID.TID 0000.0001)     ;
(PID.TID 0000.0001) GGL90diffTKEh =   /* GGL90 horizontal diffusivity for TKE ( m^2/s ). */
(PID.TID 0000.0001)                 0.000000000000000E+00
(PID.TID 0000.0001)     ;
(PID.TID 0000.0001) GGL90mixingLengthMin =   /* GGL90 minimum mixing length ( m ). */
(PID.TID 0000.0001)                 1.000000000000000E-08
(PID.TID 0000.0001)     ;
(PID.TID 0000.0001) mxlMaxFlag =   /* Flag for limiting mixing-length method */
(PID.TID 0000.0001)                       2
(PID.TID 0000.0001)     ;
(PID.TID 0000.0001) mxlSurfFlag =   /* GGL90 flag for near surface mixing. */
(PID.TID 0000.0001)                   T
(PID.TID 0000.0001)     ;
(PID.TID 0000.0001) calcMeanVertShear = /* calc Mean of Vert.Shear (vs shear of Mean flow) */
(PID.TID 0000.0001)                   F
(PID.TID 0000.0001)     ;
(PID.TID 0000.0001) GGL90: GGL90TKEFile =
(PID.TID 0000.0001) GGL90writeState =   /* GGL90 Boundary condition flag. */
(PID.TID 0000.0001)                   T
(PID.TID 0000.0001)     ;
(PID.TID 0000.0001) // =======================================================
(PID.TID 0000.0001) // End of GGL90 config. summary
(PID.TID 0000.0001) // =======================================================
(PID.TID 0000.0001) 
(PID.TID 0000.0001)  GM_READPARMS: opening data.gmredi
(PID.TID 0000.0001)  OPEN_COPY_DATA_FILE: opening file data.gmredi
(PID.TID 0000.0001) // =======================================================
(PID.TID 0000.0001) // Parameter file "data.gmredi"
(PID.TID 0000.0001) // =======================================================
(PID.TID 0000.0001) ># from MOM
(PID.TID 0000.0001) ># GM_background_K: 	isopycnal diffusion coefficien
(PID.TID 0000.0001) ># GM_maxSlope:		max slope of isopycnals
(PID.TID 0000.0001) ># GM_Scrit:		transition for scaling diffusion coefficient
(PID.TID 0000.0001) ># GM_Sd:		half width scaling for diffusion coefficient
(PID.TID 0000.0001) ># real background diff:	horizontal diffusion
(PID.TID 0000.0001) >
(PID.TID 0000.0001) ># ifdef GM_VISBECK_VARIABLE_K, include following in GM_PARM01
(PID.TID 0000.0001) ># GM_Visbeck_alpha   = 0.,
(PID.TID 0000.0001) ># GM_Visbeck_length  = 2.e+5,
(PID.TID 0000.0001) ># GM_Visbeck_depth   = 1.e+3,
(PID.TID 0000.0001) ># GM_Visbeck_maxval_K= 2.5e+3,
(PID.TID 0000.0001) >
(PID.TID 0000.0001) > &GM_PARM01
(PID.TID 0000.0001) >  GM_background_K    = 1.e+3,
(PID.TID 0000.0001) >  GM_taper_scheme    = 'gkw91',
(PID.TID 0000.0001) >  GM_maxSlope        = 1.e-2,
(PID.TID 0000.0001) >  GM_Kmin_horiz      = 100.,
(PID.TID 0000.0001) >  GM_Scrit           = 4.e-3,
(PID.TID 0000.0001) >  GM_Sd              = 1.e-3,
(PID.TID 0000.0001) > /
(PID.TID 0000.0001) >
(PID.TID 0000.0001) >
(PID.TID 0000.0001) 
(PID.TID 0000.0001)  GM_READPARMS: finished reading data.gmredi
(PID.TID 0000.0001)  PTRACERS_READPARMS: opening data.ptracers
(PID.TID 0000.0001)  OPEN_COPY_DATA_FILE: opening file data.ptracers
(PID.TID 0000.0001) // =======================================================
(PID.TID 0000.0001) // Parameter file "data.ptracers"
(PID.TID 0000.0001) // =======================================================
(PID.TID 0000.0001) > &PTRACERS_PARM01
(PID.TID 0000.0001) > PTRACERS_numInUse=5,
(PID.TID 0000.0001) > PTRACERS_Iter0= 0,
(PID.TID 0000.0001) ># tracer 1 - dic
(PID.TID 0000.0001) > PTRACERS_names(1)='DIC',
(PID.TID 0000.0001) > PTRACERS_long_names(1)='Dissolved Inorganic Carbon (DIC) [mol C/m^3]',
(PID.TID 0000.0001) > PTRACERS_units(1)='mol/m^3',
(PID.TID 0000.0001) > PTRACERS_advScheme(1)=77,
(PID.TID 0000.0001) > PTRACERS_diffKh(1)=0.E3,
(PID.TID 0000.0001) > PTRACERS_diffKr(1)=3.E-5,
(PID.TID 0000.0001) > PTRACERS_useGMRedi(1)=.TRUE.,
(PID.TID 0000.0001) > PTRACERS_initialFile(1)='DIC.0005184000',
(PID.TID 0000.0001) >#- use F95 syntax (to be converted with -DNML_EXTENDED_F77 if needed)
(PID.TID 0000.0001) > PTRACERS_ref(1:15,1) = 2.0282, 2.0609, 2.1206, 2.1581,
(PID.TID 0000.0001) >                     2.1904, 2.2188, 2.2474, 2.2699,
(PID.TID 0000.0001) >                     2.2792, 2.2814, 2.2815, 2.2806,
(PID.TID 0000.0001) >                     2.2800, 2.2760, 2.2758,
(PID.TID 0000.0001) > PTRACERS_EvPrRn(1)= 0.,
(PID.TID 0000.0001) ># tracer 2 - alk
(PID.TID 0000.0001) > PTRACERS_names(2)='Alk',
(PID.TID 0000.0001) > PTRACERS_long_names(2)='Alkalinity (Alk) [mol eq/m^3]',
(PID.TID 0000.0001) > PTRACERS_units(2)='mol/m^3',
(PID.TID 0000.0001) > PTRACERS_advScheme(2)=77,
(PID.TID 0000.0001) > PTRACERS_diffKh(2)=0.E3,
(PID.TID 0000.0001) > PTRACERS_diffKr(2)=3.E-5,
(PID.TID 0000.0001) > PTRACERS_useGMRedi(2)=.TRUE.,
(PID.TID 0000.0001) > PTRACERS_initialFile(2)='Alk.0005184000',
(PID.TID 0000.0001) >#- use F95 syntax (to be converted with -DNML_EXTENDED_F77 if needed)
(PID.TID 0000.0001) > PTRACERS_ref(1:15,2) = 2.3086, 2.3149, 2.3164, 2.3112,
(PID.TID 0000.0001) >                     2.3098, 2.3160, 2.3313, 2.3517,
(PID.TID 0000.0001) >                     2.3667, 2.3761, 2.3832, 2.3862,
(PID.TID 0000.0001) >                     2.3881, 2.3863, 2.3867,
(PID.TID 0000.0001) > PTRACERS_EvPrRn(2)= 0.,
(PID.TID 0000.0001) ># tracer 3 - po4
(PID.TID 0000.0001) > PTRACERS_names(3)='PO4',
(PID.TID 0000.0001) > PTRACERS_long_names(3)='Phosphate (PO4) [mol P/m^3]',
(PID.TID 0000.0001) > PTRACERS_units(3)='mol/m^3',
(PID.TID 0000.0001) > PTRACERS_advScheme(3)=77,
(PID.TID 0000.0001) > PTRACERS_diffKh(3)=0.E3,
(PID.TID 0000.0001) > PTRACERS_diffKr(3)=3.E-5,
(PID.TID 0000.0001) > PTRACERS_useGMRedi(3)=.TRUE.,
(PID.TID 0000.0001) > PTRACERS_initialFile(3)='PO4.0005184000',
(PID.TID 0000.0001) >#- use F95 syntax (to be converted with -DNML_EXTENDED_F77 if needed)
(PID.TID 0000.0001) > PTRACERS_ref(1:15,3) = 0.5438E-3, 0.7821E-3, 1.1335E-3, 1.4913E-3,
(PID.TID 0000.0001) >                     1.8606E-3, 2.1986E-3, 2.3966E-3, 2.4187E-3,
(PID.TID 0000.0001) >                     2.4046E-3, 2.3291E-3, 2.2922E-3, 2.2886E-3,
(PID.TID 0000.0001) >                     2.2608E-3, 2.2356E-3, 2.2296E-3,
(PID.TID 0000.0001) >#PTRACERS_EvPrRn(3)= 0.,
(PID.TID 0000.0001) ># tracer 4 - dop
(PID.TID 0000.0001) > PTRACERS_names(4)='DOP',
(PID.TID 0000.0001) > PTRACERS_long_names(4)='Dissolved Organic Phosphorus (DOP) [mol P/m^3]',
(PID.TID 0000.0001) > PTRACERS_units(4)='mol/m^3',
(PID.TID 0000.0001) > PTRACERS_advScheme(4)=77,
(PID.TID 0000.0001) > PTRACERS_diffKh(4)=0.E3,
(PID.TID 0000.0001) > PTRACERS_diffKr(4)=3.E-5,
(PID.TID 0000.0001) > PTRACERS_useGMRedi(4)=.TRUE.,
(PID.TID 0000.0001) > PTRACERS_initialFile(4)='DOP.0005184000',
(PID.TID 0000.0001) >#- use F95 syntax (to be converted with -DNML_EXTENDED_F77 if needed)
(PID.TID 0000.0001) > PTRACERS_ref(1:15,4) = 15*0.,
(PID.TID 0000.0001) >#PTRACERS_EvPrRn(4)= 0.,
(PID.TID 0000.0001) ># tracer 5 - o2
(PID.TID 0000.0001) > PTRACERS_names(5)='O2',
(PID.TID 0000.0001) > PTRACERS_long_names(5)='Dissolved Oxygen (O2) [mol O/m^3]',
(PID.TID 0000.0001) > PTRACERS_units(5)='mol/m^3',
(PID.TID 0000.0001) > PTRACERS_advScheme(5)=77,
(PID.TID 0000.0001) > PTRACERS_diffKh(5)=0.E3,
(PID.TID 0000.0001) > PTRACERS_diffKr(5)=3.E-5,
(PID.TID 0000.0001) > PTRACERS_useGMRedi(5)=.TRUE.,
(PID.TID 0000.0001) > PTRACERS_initialFile(5)='O2.0005184000',
(PID.TID 0000.0001) >#- use F95 syntax (to be converted with -DNML_EXTENDED_F77 if needed)
(PID.TID 0000.0001) > PTRACERS_ref(1:15,5) = 0.2457, 0.2336, 0.1975, 0.1729,
(PID.TID 0000.0001) >                     0.1591, 0.1503, 0.1424, 0.1445,
(PID.TID 0000.0001) >                     0.1549, 0.1661, 0.1774, 0.1863,
(PID.TID 0000.0001) >                     0.1925, 0.2021, 0.2051,
(PID.TID 0000.0001) >#PTRACERS_EvPrRn(5)= 0.,
(PID.TID 0000.0001) > /
(PID.TID 0000.0001) 
(PID.TID 0000.0001)  PTRACERS_READPARMS: finished reading data.ptracers
(PID.TID 0000.0001)  GCHEM_READPARMS: opening data.gchem
(PID.TID 0000.0001)  OPEN_COPY_DATA_FILE: opening file data.gchem
(PID.TID 0000.0001) // =======================================================
(PID.TID 0000.0001) // Parameter file "data.gchem"
(PID.TID 0000.0001) // =======================================================
(PID.TID 0000.0001) > &GCHEM_PARM01
(PID.TID 0000.0001) >  useDIC=.TRUE.,
(PID.TID 0000.0001) >  nsubtime=1,
(PID.TID 0000.0001) > /
(PID.TID 0000.0001) 
(PID.TID 0000.0001)  GCHEM_READPARMS: finished reading data.gchem
(PID.TID 0000.0001)  DIC_READPARMS: opening data.dic
(PID.TID 0000.0001)  OPEN_COPY_DATA_FILE: opening file data.dic
(PID.TID 0000.0001) // =======================================================
(PID.TID 0000.0001) // Parameter file "data.dic"
(PID.TID 0000.0001) // =======================================================
(PID.TID 0000.0001) ># DIC parameters
(PID.TID 0000.0001) > &ABIOTIC_PARMS
(PID.TID 0000.0001) > /
(PID.TID 0000.0001) >
(PID.TID 0000.0001) > &BIOTIC_PARMS
(PID.TID 0000.0001) >  alphaUniform = 0.97e-10,
(PID.TID 0000.0001) >  rainRatioUniform = 5.e-2,
(PID.TID 0000.0001) >  KRemin = 0.95,
(PID.TID 0000.0001) > /
(PID.TID 0000.0001) >
(PID.TID 0000.0001) > &DIC_FORCING
(PID.TID 0000.0001) >  DIC_iceFile='fice.bin',
(PID.TID 0000.0001) >  DIC_windFile='tren_speed.bin',
(PID.TID 0000.0001) >  DIC_silicaFile='sillev1.bin',
(PID.TID 0000.0001) > /
(PID.TID 0000.0001) 
(PID.TID 0000.0001)  DIC_READPARMS: finished reading data.dic
(PID.TID 0000.0001) 
(PID.TID 0000.0001) // ===================================
(PID.TID 0000.0001) // DIC package parameters :
(PID.TID 0000.0001) // ===================================
(PID.TID 0000.0001) permil = /* Ref. density to convert mol/m3 to mol/kg */
(PID.TID 0000.0001)                 9.760858955588092E-04
(PID.TID 0000.0001)     ;
(PID.TID 0000.0001) Pa2Atm = /* Atmosph. pressure conversion coeff (to Atm) */
(PID.TID 0000.0001)                 1.013250000000000E+05
(PID.TID 0000.0001)     ;
(PID.TID 0000.0001) DOPfraction = /* Fraction of new production going to DOP */
(PID.TID 0000.0001)                 6.700000000000000E-01
(PID.TID 0000.0001)     ;
(PID.TID 0000.0001) KDOPRemin = /* DOP remineralization rate (1/s) */
(PID.TID 0000.0001)                 6.430041152263375E-08
(PID.TID 0000.0001)     ;
(PID.TID 0000.0001) KRemin = /* Remin power law coeff. */
(PID.TID 0000.0001)                 9.500000000000000E-01
(PID.TID 0000.0001)     ;
(PID.TID 0000.0001) zcrit = /* Minimum depth for biological activity (m) */
(PID.TID 0000.0001)                 5.000000000000000E+02
(PID.TID 0000.0001)     ;
(PID.TID 0000.0001) O2crit = /* Critical oxygen level (mol/m3) */
(PID.TID 0000.0001)                 4.000000000000000E-03
(PID.TID 0000.0001)     ;
(PID.TID 0000.0001) R_OP = /* Stochiometric ratio R_OP */
(PID.TID 0000.0001)                -1.700000000000000E+02
(PID.TID 0000.0001)     ;
(PID.TID 0000.0001) R_CP = /* Stochiometric ratio R_CP */
(PID.TID 0000.0001)                 1.170000000000000E+02
(PID.TID 0000.0001)     ;
(PID.TID 0000.0001) R_NP = /* Stochiometric ratio R_NP */
(PID.TID 0000.0001)                 1.600000000000000E+01
(PID.TID 0000.0001)     ;
(PID.TID 0000.0001) R_FeP = /* Stochiometric ratio R_FeP */
(PID.TID 0000.0001)                 4.680000000000000E-04
(PID.TID 0000.0001)     ;
(PID.TID 0000.0001) zca = /* Scale depth for CaCO3 remineralization (m) */
(PID.TID 0000.0001)                 3.500000000000000E+03
(PID.TID 0000.0001)     ;
(PID.TID 0000.0001) parfrac = /* Fraction of Qsw that is PAR */
(PID.TID 0000.0001)                 4.000000000000000E-01
(PID.TID 0000.0001)     ;
(PID.TID 0000.0001) k0 = /* Light attentuation coefficient, water (1/m) */
(PID.TID 0000.0001)                 2.000000000000000E-02
(PID.TID 0000.0001)     ;
(PID.TID 0000.0001) kchl = /* Light attentuation coefficient, chlorophyll (m2/mg) */
(PID.TID 0000.0001)                 2.000000000000000E-02
(PID.TID 0000.0001)     ;
(PID.TID 0000.0001) lit0 = /* Half saturation light constant (W/m2) */
(PID.TID 0000.0001)                 3.000000000000000E+01
(PID.TID 0000.0001)     ;
(PID.TID 0000.0001) KPO4 = /* Half saturation phosphate constant (mol/m3) */
(PID.TID 0000.0001)                 5.000000000000000E-04
(PID.TID 0000.0001)     ;
(PID.TID 0000.0001) KFE = /* Half saturation fe constant (mol/m3) */
(PID.TID 0000.0001)                 1.200000000000000E-07
(PID.TID 0000.0001)     ;
(PID.TID 0000.0001) alpfe = /* Solubility of aeolian fe */
(PID.TID 0000.0001)                 1.000000000000000E-02
(PID.TID 0000.0001)     ;
(PID.TID 0000.0001) fesedflux_pcm = /* Sediment Fe flux = fesedflux_pcm*pflux+FeIntSec */
(PID.TID 0000.0001)                 7.208000000000001E-02
(PID.TID 0000.0001)     ;
(PID.TID 0000.0001) FeIntSec = /* Sediment Fe flux = fesedflux_pcm * pflux + FeIntSec */
(PID.TID 0000.0001)                 5.787037037037037E-12
(PID.TID 0000.0001)     ;
(PID.TID 0000.0001) freefemax = /* Max solubility of free iron (mol/m3) */
(PID.TID 0000.0001)                 3.000000000000000E-07
(PID.TID 0000.0001)     ;
(PID.TID 0000.0001) KScav = /* Iron scavenging rate */
(PID.TID 0000.0001)                 6.108539094650206E-09
(PID.TID 0000.0001)     ;
(PID.TID 0000.0001) ligand_stab = /* Ligand-free iron stability constant (m3/mol) */
(PID.TID 0000.0001)                 1.000000000000000E+08
(PID.TID 0000.0001)     ;
(PID.TID 0000.0001) ligand_tot = /* Total free ligand  (mol/m3) */
(PID.TID 0000.0001)                 1.000000000000000E-06
(PID.TID 0000.0001)     ;
(PID.TID 0000.0001) alphaUniform = /* Timescale for biological activity */
(PID.TID 0000.0001)                 9.700000000000000E-11
(PID.TID 0000.0001)     ;
(PID.TID 0000.0001) rainRatioUniform= /* Inorganic/organic carbon rain ratio */
(PID.TID 0000.0001)                 5.000000000000000E-02
(PID.TID 0000.0001)     ;
(PID.TID 0000.0001) QSW_underice  =  /* Flag for Qsw under Sea-Ice (i.e. SI fract included) */
(PID.TID 0000.0001)                   F
(PID.TID 0000.0001)     ;
(PID.TID 0000.0001) DIC_windFile =  /* File name of wind speeds */
(PID.TID 0000.0001)               'tren_speed.bin'
(PID.TID 0000.0001)     ;
(PID.TID 0000.0001) DIC_atmospFile=  /* File name of atmospheric pressure*/
(PID.TID 0000.0001)               ''
(PID.TID 0000.0001)     ;
(PID.TID 0000.0001) DIC_iceFile =  /* File name of seaice fraction */
(PID.TID 0000.0001)               'fice.bin'
(PID.TID 0000.0001)     ;
(PID.TID 0000.0001) DIC_ironFile =  /* File name of aeolian iron flux */
(PID.TID 0000.0001)               ''
(PID.TID 0000.0001)     ;
(PID.TID 0000.0001) DIC_silicaFile=  /* File name of surface silica */
(PID.TID 0000.0001)               'sillev1.bin'
(PID.TID 0000.0001)     ;
(PID.TID 0000.0001) DIC_parFile=  /* File name of photosynthetically available radiation */
(PID.TID 0000.0001)               ''
(PID.TID 0000.0001)     ;
(PID.TID 0000.0001) DIC_chlaFile=  /* File name of chlorophyll climatology */
(PID.TID 0000.0001)               ''
(PID.TID 0000.0001)     ;
(PID.TID 0000.0001) DIC_forcingPeriod = /* Periodic forcing parameter specific for DIC (s) */
(PID.TID 0000.0001)                 2.592000000000000E+06
(PID.TID 0000.0001)     ;
(PID.TID 0000.0001) DIC_forcingCycle = /* Periodic forcing parameter specific for DIC (s) */
(PID.TID 0000.0001)                 3.110400000000000E+07
(PID.TID 0000.0001)     ;
(PID.TID 0000.0001) dic_int1 =  /*  */
(PID.TID 0000.0001)                       0
(PID.TID 0000.0001)     ;
(PID.TID 0000.0001) dic_int2 =  /*  */
(PID.TID 0000.0001)                       0
(PID.TID 0000.0001)     ;
(PID.TID 0000.0001) dic_int3 =  /*  */
(PID.TID 0000.0001)                       0
(PID.TID 0000.0001)     ;
(PID.TID 0000.0001) dic_int4 =  /*  */
(PID.TID 0000.0001)                       0
(PID.TID 0000.0001)     ;
(PID.TID 0000.0001) dic_pCO2 = /* Atmospheric pCO2 to be read in data.dic */
(PID.TID 0000.0001)                 2.780000000000000E-04
(PID.TID 0000.0001)     ;
(PID.TID 0000.0001) 
(PID.TID 0000.0001)  SEAICE_READPARMS: opening data.seaice
(PID.TID 0000.0001)  OPEN_COPY_DATA_FILE: opening file data.seaice
(PID.TID 0000.0001) // =======================================================
(PID.TID 0000.0001) // Parameter file "data.seaice"
(PID.TID 0000.0001) // =======================================================
(PID.TID 0000.0001) ># SEAICE parameters
(PID.TID 0000.0001) > &SEAICE_PARM01
(PID.TID 0000.0001) >      SEAICEuseTILT=.FALSE.,
(PID.TID 0000.0001) >      SEAICEpresH0=2.,
(PID.TID 0000.0001) >      SEAICEpresPow0=1,
(PID.TID 0000.0001) >      SEAICEpresPow1=3,
(PID.TID 0000.0001) >      SEAICE_multDim=1,
(PID.TID 0000.0001) >      SEAICErestoreUnderIce=.TRUE.,
(PID.TID 0000.0001) >      SEAICE_area_max=0.95,
(PID.TID 0000.0001) >#for backward compatibility (before 2011 june 19, those were the defaults)
(PID.TID 0000.0001) >#     SEAICE_area_floor=0.15,
(PID.TID 0000.0001) >#     SEAICE_area_reg=0.15,
(PID.TID 0000.0001) >      SEAICE_salt0=4.,
(PID.TID 0000.0001) ># for long time step:
(PID.TID 0000.0001) >#      SEAICE_deltaTevp   = 720.,
(PID.TID 0000.0001) ># for regular time step:
(PID.TID 0000.0001) >      SEAICE_deltaTevp   = 60.,
(PID.TID 0000.0001) ># for lsr:
(PID.TID 0000.0001) >#      LSR_ERROR          = 2.e-4,
(PID.TID 0000.0001) >      SEAICEuseDYNAMICS  = .TRUE.,
(PID.TID 0000.0001) ># BAD OPTION -- DO NOT USE -- SEAICE_maskRHS     = .TRUE.,
(PID.TID 0000.0001) >      MIN_ATEMP          = -40.,
(PID.TID 0000.0001) >      MIN_TICE           = -40.,
(PID.TID 0000.0001) >      SEAICEadvScheme    = 30,
(PID.TID 0000.0001) >      SEAICEuseFluxForm = .TRUE.,
(PID.TID 0000.0001) >      SEAICEadvSnow      = .TRUE.,
(PID.TID 0000.0001) >#      SEAICEadvSalt      = .TRUE.,
(PID.TID 0000.0001) >      SEAICEdiffKhHeff   = 400.,
(PID.TID 0000.0001) >      SEAICEdiffKhArea   = 400.,
(PID.TID 0000.0001) >      SEAICEdiffKhSnow   = 400.,
(PID.TID 0000.0001) >#      SEAICEdiffKhSalt   = 400.,
(PID.TID 0000.0001) >      SEAICEuseFlooding  = .TRUE.,
(PID.TID 0000.0001) >      SEAICE_mcPheePiston= 3.858024691358025E-05,
(PID.TID 0000.0001) >      SEAICE_frazilFrac  = 1.,
(PID.TID 0000.0001) >      SEAICE_mcPheeTaper = 0.,
(PID.TID 0000.0001) >      SEAICE_areaLossFormula=2,
(PID.TID 0000.0001) >      SEAICEheatConsFix  = .TRUE.,
(PID.TID 0000.0001) >      SEAICE_tempFrz0    = -1.96,
(PID.TID 0000.0001) >      SEAICE_dTempFrz_dS = 0.,
(PID.TID 0000.0001) >      SEAICEuseMetricTerms = .TRUE.,
(PID.TID 0000.0001) >      SEAICE_no_slip     = .FALSE.,
(PID.TID 0000.0001) >      SEAICE_clipVelocities = .TRUE.,
(PID.TID 0000.0001) >#take 33% out of (1-albedo)
(PID.TID 0000.0001) >      SEAICE_dryIceAlb   = 0.84,
(PID.TID 0000.0001) >      SEAICE_wetIceAlb   = 0.78,
(PID.TID 0000.0001) >      SEAICE_drySnowAlb  = 0.90,
(PID.TID 0000.0001) >      SEAICE_wetSnowAlb  = 0.8 ,
(PID.TID 0000.0001) >#default albedos
(PID.TID 0000.0001) >      SEAICE_dryIceAlb_south   = 0.75
(PID.TID 0000.0001) >      SEAICE_wetIceAlb_south   = 0.66
(PID.TID 0000.0001) >      SEAICE_drySnowAlb_south  = 0.84
(PID.TID 0000.0001) >      SEAICE_wetSnowAlb_south  = 0.7
(PID.TID 0000.0001) >#initial conditions
(PID.TID 0000.0001) >      AreaFile = 'Area.0005184000',
(PID.TID 0000.0001) >      HeffFile = 'Heff.0005184000',
(PID.TID 0000.0001) > /
(PID.TID 0000.0001) >#
(PID.TID 0000.0001) > &SEAICE_PARM02
(PID.TID 0000.0001) > /
(PID.TID 0000.0001) >
(PID.TID 0000.0001) 
(PID.TID 0000.0001)  SEAICE_READPARMS: finished reading data.seaice
(PID.TID 0000.0001) SALT_PLUME_READPARMS: opening data.salt_plume
(PID.TID 0000.0001)  OPEN_COPY_DATA_FILE: opening file data.salt_plume
(PID.TID 0000.0001) // =======================================================
(PID.TID 0000.0001) // Parameter file "data.salt_plume"
(PID.TID 0000.0001) // =======================================================
(PID.TID 0000.0001) > &SALT_PLUME_PARM01
(PID.TID 0000.0001) > SPsalFRAC= 0.5D0,
(PID.TID 0000.0001) > /
(PID.TID 0000.0001) 
(PID.TID 0000.0001) SALT_PLUME_READPARMS: finished reading data.salt_plume
(PID.TID 0000.0001)  DIAGNOSTICS_READPARMS: opening data.diagnostics
(PID.TID 0000.0001)  OPEN_COPY_DATA_FILE: opening file data.diagnostics
(PID.TID 0000.0001) // =======================================================
(PID.TID 0000.0001) // Parameter file "data.diagnostics"
(PID.TID 0000.0001) // =======================================================
(PID.TID 0000.0001) ># Diagnostic Package Choices
(PID.TID 0000.0001) >#--------------------
(PID.TID 0000.0001) >#  dumpAtLast (logical): always write output at the end of simulation (default=F)
(PID.TID 0000.0001) >#  diag_mnc   (logical): write to NetCDF files (default=useMNC)
(PID.TID 0000.0001) >#--for each output-stream:
(PID.TID 0000.0001) >#  fileName(n) : prefix of the output file name (max 80c long) for outp.stream n
(PID.TID 0000.0001) >#  frequency(n):< 0 : write snap-shot output every |frequency| seconds
(PID.TID 0000.0001) >#               > 0 : write time-average output every frequency seconds
(PID.TID 0000.0001) >#  timePhase(n)     : write at time = timePhase + multiple of |frequency|
(PID.TID 0000.0001) >#    averagingFreq  : frequency (in s) for periodic averaging interval
(PID.TID 0000.0001) >#    averagingPhase : phase     (in s) for periodic averaging interval
(PID.TID 0000.0001) >#    repeatCycle    : number of averaging intervals in 1 cycle
(PID.TID 0000.0001) >#  levels(:,n) : list of levels to write to file (Notes: declared as REAL)
(PID.TID 0000.0001) >#                when this entry is missing, select all common levels of this list
(PID.TID 0000.0001) >#  fields(:,n) : list of selected diagnostics fields (8.c) in outp.stream n
(PID.TID 0000.0001) >#                (see "available_diagnostics.log" file for the full list of diags)
(PID.TID 0000.0001) >#  missing_value(n) : missing value for real-type fields in output file "n"
(PID.TID 0000.0001) >#  fileFlags(n)     : specific code (8c string) for output file "n"
(PID.TID 0000.0001) >#--------------------
(PID.TID 0000.0001) > &DIAGNOSTICS_LIST
(PID.TID 0000.0001) >  fields(1:10,1) = 'ETAN    ','ETANSQ  ','DETADT2 ','PHIBOT  ','PHIBOTSQ',
(PID.TID 0000.0001) >                   'DICTFLX ','DICOFLX ','DICCFLX ','DICPCO2 ','DICPHAV ',
(PID.TID 0000.0001) >   levels(1,1) = 1.,
(PID.TID 0000.0001) >   fileName(1) = 'surfDiag',
(PID.TID 0000.0001) >  frequency(1) = 432000.,
(PID.TID 0000.0001) >  frequency(1) = 172800.,
(PID.TID 0000.0001) >  fields(1:18,2) = 'UVEL    ','VVEL    ','WVEL    ','PHIHYD  ',
(PID.TID 0000.0001) >                   'UVELMASS','VVELMASS',
(PID.TID 0000.0001) >                   'UVELSQ  ','VVELSQ  ','UV_VEL_C','THETASQ ',
(PID.TID 0000.0001) >                   'THETA   ','UTHMASS ','VTHMASS ','WVELTH  ',
(PID.TID 0000.0001) >                   'SALT    ','USLTMASS','VSLTMASS','WVELSLT ',
(PID.TID 0000.0001) >#  fileName(2) = 'dynDiag',
(PID.TID 0000.0001) >  frequency(2) = 0.,
(PID.TID 0000.0001) >  fields(1:5,3)  = 'DICBIOA ','DICCARB ',
(PID.TID 0000.0001) >                   'TRAC05  ','ADVxTr05','DFrITr05',
(PID.TID 0000.0001) >#  fileName(3) = 'dicDiag',
(PID.TID 0000.0001) >  frequency(3) = 172800.,
(PID.TID 0000.0001) >  fields(1:8,4)  = 'ADVx_TH ','ADVy_TH ','ADVr_TH ',
(PID.TID 0000.0001) >                   'DFxE_TH ','DFyE_TH ','DFrE_TH ',
(PID.TID 0000.0001) >                   'DFrI_TH ',
(PID.TID 0000.0001) >                   'ADVx_SLT',
(PID.TID 0000.0001) >#  fileName(4) = 'flxDiag',
(PID.TID 0000.0001) >  frequency(4) = 0.,
(PID.TID 0000.0001) > /
(PID.TID 0000.0001) >
(PID.TID 0000.0001) >#--------------------
(PID.TID 0000.0001) ># Parameter for Diagnostics of per level statistics:
(PID.TID 0000.0001) >#--------------------
(PID.TID 0000.0001) >#  diagSt_mnc (logical): write stat-diags to NetCDF files (default=diag_mnc)
(PID.TID 0000.0001) >#  diagSt_regMaskFile : file containing the region-mask to read-in
(PID.TID 0000.0001) >#  nSetRegMskFile   : number of region-mask sets within the region-mask file
(PID.TID 0000.0001) >#  set_regMask(i)   : region-mask set-index that identifies the region "i"
(PID.TID 0000.0001) >#  val_regMask(i)   : region "i" identifier value in the region mask
(PID.TID 0000.0001) >#--for each output-stream:
(PID.TID 0000.0001) >#  stat_fName(n) : prefix of the output file name (max 80c long) for outp.stream n
(PID.TID 0000.0001) >#  stat_freq(n):< 0 : write snap-shot output every |stat_freq| seconds
(PID.TID 0000.0001) >#               > 0 : write time-average output every stat_freq seconds
(PID.TID 0000.0001) >#  stat_phase(n)    : write at time = stat_phase + multiple of |stat_freq|
(PID.TID 0000.0001) >#  stat_region(:,n) : list of "regions" (default: 1 region only=global)
(PID.TID 0000.0001) >#  stat_fields(:,n) : list of selected diagnostics fields (8.c) in outp.stream n
(PID.TID 0000.0001) >#                (see "available_diagnostics.log" file for the full list of diags)
(PID.TID 0000.0001) >#--------------------
(PID.TID 0000.0001) > &DIAG_STATIS_PARMS
(PID.TID 0000.0001) >#- an example just to check the agreement with MONITOR output:
(PID.TID 0000.0001) >#stat_fields(1:5,1)  = 'ETAN    ','UVEL    ','VVEL    ','WVEL    ', 'THETA   ',
(PID.TID 0000.0001) ># stat_fName(1) = 'dynStDiag',
(PID.TID 0000.0001) >#  stat_freq(1) = -864000.,
(PID.TID 0000.0001) ># stat_phase(1) = 0.,
(PID.TID 0000.0001) > /
(PID.TID 0000.0001) >
(PID.TID 0000.0001) 
(PID.TID 0000.0001) S/R DIAGNOSTICS_READPARMS, read namelist "diagnostics_list": start
(PID.TID 0000.0001) S/R DIAGNOSTICS_READPARMS, read namelist "diagnostics_list": OK
(PID.TID 0000.0001) S/R DIAGNOSTICS_READPARMS, read namelist "DIAG_STATIS_PARMS": start
(PID.TID 0000.0001) S/R DIAGNOSTICS_READPARMS, read namelist "DIAG_STATIS_PARMS": OK
(PID.TID 0000.0001)  DIAGNOSTICS_READPARMS: global parameter summary:
(PID.TID 0000.0001)  dumpAtLast = /* always write time-ave diags at the end */
(PID.TID 0000.0001)                   F
(PID.TID 0000.0001)     ;
(PID.TID 0000.0001)  diag_mnc =   /* write NetCDF output files */
(PID.TID 0000.0001)                   F
(PID.TID 0000.0001)     ;
(PID.TID 0000.0001)  useMissingValue = /* put MissingValue where mask = 0 */
(PID.TID 0000.0001)                   F
(PID.TID 0000.0001)     ;
(PID.TID 0000.0001)  diagCG_maxIters = /* max number of iters in diag_cg2d */
(PID.TID 0000.0001)                    1000
(PID.TID 0000.0001)     ;
(PID.TID 0000.0001)  diagCG_resTarget = /* residual target for diag_cg2d */
(PID.TID 0000.0001)                 1.000000000000000E-13
(PID.TID 0000.0001)     ;
(PID.TID 0000.0001)  diagCG_pcOffDFac = /* preconditioner off-diagonal factor */
(PID.TID 0000.0001)                 9.611687812379854E-01
(PID.TID 0000.0001)     ;
(PID.TID 0000.0001) -----------------------------------------------------
(PID.TID 0000.0001)  DIAGNOSTICS_READPARMS: active diagnostics summary:
(PID.TID 0000.0001) -----------------------------------------------------
(PID.TID 0000.0001) Creating Output Stream: surfDiag
(PID.TID 0000.0001) Output Frequency:     172800.000000 ; Phase:           0.000000
(PID.TID 0000.0001)  Averaging Freq.:     172800.000000 , Phase:           0.000000 , Cycle:   1
(PID.TID 0000.0001)  missing value: -9.990000000000E+02
(PID.TID 0000.0001)  Levels:       1.
(PID.TID 0000.0001)  Fields:    ETAN     ETANSQ   DETADT2  PHIBOT   PHIBOTSQ DICTFLX  DICOFLX  DICCFLX  DICPCO2  DICPHAV
(PID.TID 0000.0001) -----------------------------------------------------
(PID.TID 0000.0001)  DIAGNOSTICS_READPARMS: statistics diags. summary:
(PID.TID 0000.0001) -----------------------------------------------------
(PID.TID 0000.0001) 
(PID.TID 0000.0001) SET_PARMS: done
(PID.TID 0000.0001) Enter INI_VERTICAL_GRID: setInterFDr=    T ; setCenterDr=    F
(PID.TID 0000.0001) %MON XC_max                       =   3.5859375000000E+02
(PID.TID 0000.0001) %MON XC_min                       =   1.4062500000000E+00
(PID.TID 0000.0001) %MON XC_mean                      =   1.8000000000000E+02
(PID.TID 0000.0001) %MON XC_sd                        =   1.0391987692599E+02
(PID.TID 0000.0001) %MON XG_max                       =   3.5718750000000E+02
(PID.TID 0000.0001) %MON XG_min                       =   0.0000000000000E+00
(PID.TID 0000.0001) %MON XG_mean                      =   1.7859375000000E+02
(PID.TID 0000.0001) %MON XG_sd                        =   1.0391987692599E+02
(PID.TID 0000.0001) %MON DXC_max                      =   3.1259246843155E+05
(PID.TID 0000.0001) %MON DXC_min                      =   7.6737143816223E+03
(PID.TID 0000.0001) %MON DXC_mean                     =   1.9908248704234E+05
(PID.TID 0000.0001) %MON DXC_sd                       =   9.6190602240067E+04
(PID.TID 0000.0001) %MON DXF_max                      =   3.1259246843155E+05
(PID.TID 0000.0001) %MON DXF_min                      =   7.6737143816223E+03
(PID.TID 0000.0001) %MON DXF_mean                     =   1.9908248704234E+05
(PID.TID 0000.0001) %MON DXF_sd                       =   9.6190602240067E+04
(PID.TID 0000.0001) %MON DXG_max                      =   3.1268664380261E+05
(PID.TID 0000.0001) %MON DXG_min                      =   0.0000000000000E+00
(PID.TID 0000.0001) %MON DXG_mean                     =   1.9902252711933E+05
(PID.TID 0000.0001) %MON DXG_sd                       =   9.6314600686012E+04
(PID.TID 0000.0001) %MON DXV_max                      =   3.1268664380261E+05
(PID.TID 0000.0001) %MON DXV_min                      =   0.0000000000000E+00
(PID.TID 0000.0001) %MON DXV_mean                     =   1.9902252711933E+05
(PID.TID 0000.0001) %MON DXV_sd                       =   9.6314600686012E+04
(PID.TID 0000.0001) %MON YC_max                       =   8.8593750000000E+01
(PID.TID 0000.0001) %MON YC_min                       =  -8.8593750000000E+01
(PID.TID 0000.0001) %MON YC_mean                      =   0.0000000000000E+00
(PID.TID 0000.0001) %MON YC_sd                        =   5.1955180880375E+01
(PID.TID 0000.0001) %MON YG_max                       =   8.7187500000000E+01
(PID.TID 0000.0001) %MON YG_min                       =  -9.0000000000000E+01
(PID.TID 0000.0001) %MON YG_mean                      =  -1.4062500000000E+00
(PID.TID 0000.0001) %MON YG_sd                        =   5.1955180880375E+01
(PID.TID 0000.0001) %MON DYC_max                      =   3.1268664380261E+05
(PID.TID 0000.0001) %MON DYC_min                      =   3.1268664380261E+05
(PID.TID 0000.0001) %MON DYC_mean                     =   3.1268664380260E+05
(PID.TID 0000.0001) %MON DYC_sd                       =   4.3655745685101E-09
(PID.TID 0000.0001) %MON DYF_max                      =   3.1268664380261E+05
(PID.TID 0000.0001) %MON DYF_min                      =   3.1268664380261E+05
(PID.TID 0000.0001) %MON DYF_mean                     =   3.1268664380260E+05
(PID.TID 0000.0001) %MON DYF_sd                       =   4.3655745685101E-09
(PID.TID 0000.0001) %MON DYG_max                      =   3.1268664380261E+05
(PID.TID 0000.0001) %MON DYG_min                      =   3.1268664380261E+05
(PID.TID 0000.0001) %MON DYG_mean                     =   3.1268664380260E+05
(PID.TID 0000.0001) %MON DYG_sd                       =   4.3655745685101E-09
(PID.TID 0000.0001) %MON DYU_max                      =   3.1268664380261E+05
(PID.TID 0000.0001) %MON DYU_min                      =   3.1268664380261E+05
(PID.TID 0000.0001) %MON DYU_mean                     =   3.1268664380260E+05
(PID.TID 0000.0001) %MON DYU_sd                       =   4.3655745685101E-09
(PID.TID 0000.0001) %MON RA_max                       =   9.7733676797555E+10
(PID.TID 0000.0001) %MON RA_min                       =   2.3992270990190E+09
(PID.TID 0000.0001) %MON RA_mean                      =   6.2244185031956E+10
(PID.TID 0000.0001) %MON RA_sd                        =   3.0074496923945E+10
(PID.TID 0000.0001) %MON RAW_max                      =   9.7733676797555E+10
(PID.TID 0000.0001) %MON RAW_min                      =   2.3992270990190E+09
(PID.TID 0000.0001) %MON RAW_mean                     =   6.2244185031956E+10
(PID.TID 0000.0001) %MON RAW_sd                       =   3.0074496923945E+10
(PID.TID 0000.0001) %MON RAS_max                      =   9.7763121221868E+10
(PID.TID 0000.0001) %MON RAS_min                      =   0.0000000000000E+00
(PID.TID 0000.0001) %MON RAS_mean                     =   6.2225438247155E+10
(PID.TID 0000.0001) %MON RAS_sd                       =   3.0113265689232E+10
(PID.TID 0000.0001) %MON RAZ_max                      =   9.7763121221868E+10
(PID.TID 0000.0001) %MON RAZ_min                      =   0.0000000000000E+00
(PID.TID 0000.0001) %MON RAZ_mean                     =   6.2225438247155E+10
(PID.TID 0000.0001) %MON RAZ_sd                       =   3.0113265689232E+10
(PID.TID 0000.0001) %MON AngleCS_max                  =   1.0000000000000E+00
(PID.TID 0000.0001) %MON AngleCS_min                  =   1.0000000000000E+00
(PID.TID 0000.0001) %MON AngleCS_mean                 =   1.0000000000000E+00
(PID.TID 0000.0001) %MON AngleCS_sd                   =   0.0000000000000E+00
(PID.TID 0000.0001) %MON AngleSN_max                  =   0.0000000000000E+00
(PID.TID 0000.0001) %MON AngleSN_min                  =   0.0000000000000E+00
(PID.TID 0000.0001) %MON AngleSN_mean                 =   0.0000000000000E+00
(PID.TID 0000.0001) %MON AngleSN_sd                   =   0.0000000000000E+00
(PID.TID 0000.0001)  MDS_WRITEVEC_LOC: open file: RhoRef.data
(PID.TID 0000.0001)  MDS_WR_REC_RL: iRec,Dim =         1         15
(PID.TID 0000.0001)  MDS_READ_FIELD: opening global file: bathy.bin
(PID.TID 0000.0001) // =======================================================
(PID.TID 0000.0001) // Field Bottom depths (ini_depths)
(PID.TID 0000.0001) // CMIN =         -5.200000000000000E+03
(PID.TID 0000.0001) // CMAX =         -5.000000000000000E+01
(PID.TID 0000.0001) // CINT =          1.907407407407407E+02
(PID.TID 0000.0001) // SYMBOLS (CMIN->CMAX): -abcdefghijklmnopqrstuvwxyz+
(PID.TID 0000.0001) //                  0.0: .
(PID.TID 0000.0001) // RANGE I (Lo:Hi:Step):(    -3:   132:     1)
(PID.TID 0000.0001) // RANGE J (Lo:Hi:Step):(    68:    -3:    -1)
(PID.TID 0000.0001) // RANGE K (Lo:Hi:Step):(   1:   1:   1)
(PID.TID 0000.0001) // =======================================================
(PID.TID 0000.0001) K =   1
(PID.TID 0000.0001) //                I=6       I=16      I=26      I=36      I=46      I=56      I=66      I=68      I=78      I=88      I=98      I=108     I=118     I=128
(PID.TID 0000.0001) // |--J--|321012345|789012345|789012345|789012345|789012345|789012345|789012345|781234567|901234567|901234567|901234567|901234567|901234567|901234567|9012
(PID.TID 0000.0001) //     68 ................................................................................................................................................
(PID.TID 0000.0001) //     67 ................................................................................................................................................
(PID.TID 0000.0001) //     66 ................................................................................................................................................
(PID.TID 0000.0001) //     65 ................................................................................................................................................
(PID.TID 0000.0001) //     64 ................................................................................................................................................
(PID.TID 0000.0001) //     63 ................................................................................................................................................
(PID.TID 0000.0001) //     62 ................................................................................................................................................
(PID.TID 0000.0001) //     61 +zsnovwy++...+zzzzzz++++...............................................................................................................++zsnovwy
(PID.TID 0000.0001) //     60 +zrmmnot.....+zzzzzzzzz+.........................................................................................y....................zz+zrmmnot
(PID.TID 0000.0001) //     59 omjjklnoqyz++zyzzzzzzzz.........................................................................................yxwvvyy..............zzromjjklno
(PID.TID 0000.0001) //     58 sponmlmoqwzyzzzzzzzz++.............................................................................................wrtxz............zytssponmlmo
(PID.TID 0000.0001) //     57 rqmmmkmmz............................................................................................................tvz............xwurrqmmmkmm
(PID.TID 0000.0001) //     56 uqjmmuyz..............................................................................................................yx........yyyyy..zuqjmmuyz
(PID.TID 0000.0001) //     55 xwrrux..............................................................++......++.......................................+yuu.....wonrwyzzzyxwrrux..
(PID.TID 0000.0001) //     54 wyz++............................................................ymnz+++.ymnz+++......................................wmkkr..qmmotsqooruwyz++...
(PID.TID 0000.0001) //     53 v...++.................................................zzzz...omsjjjjm++sjjjjm+++.....zjghl...........................zojjjlkkloronmpvxtv...++..
(PID.TID 0000.0001) //     52 ....++................................................+xxyy...ggijjljjmpijjljjmpz.++tdeffhjm............................zmjiijlqnljlqtpo....++..
(PID.TID 0000.0001) //     51 .......................................................xvvx..ddfdhjsqmpqdhjsqmpqdbcddddefghjlz..........................zylgghhikkjhigqy........
(PID.TID 0000.0001) //     50 z+.....................................................+uutw---aaaa-----aaa------aaaabddefghjnq..........................zvogdefglkgfddpz+......
(PID.TID 0000.0001) //     49 dg+....................................................roqja--------------------------abddefhmmx..........................+whddehlnjdddddg+.....
(PID.TID 0000.0001) //     48 oxy.....................................................va------a-------a--------------addefgjlx.....................++nj+wfddfgjnmkgeddoxy.....
(PID.TID 0000.0001) //     47 t......................................................a------a----------------------aaaddefgiks...................+qfbaaahebddgoqnhfa--t.......
(PID.TID 0000.0001) //     46 v.....................................................z------d--a-d-----a-d----------------abddg..................lfdda-----bdhksrqhdacev.......
(PID.TID 0000.0001) //     45 g.....................................................b-----fb---cdhfe---cdhfe-------------aadddk................oeaaddb-abcehlnmkgcabjdg.......
(PID.TID 0000.0001) //     44 .................................................+.vgs-----ci----aaa-----aaa--------------bddddefu..............xf--ddb---adhlkihjd-bfgi........
(PID.TID 0000.0001) //     43 ................................................+ywfdng-------------a-a-----a-a--------abddddddefhr............+vd--ab----afkjgccda-deju........
(PID.TID 0000.0001) //     42 ...............................................+zveddhna-------------dde-----ddedbba----addddddeffh............+vd-------acgifaa-aaadis.........
(PID.TID 0000.0001) //     41 .........................op.....................qdeeddn---a--a--------dd------ddheddea---abddddeefgizw.......t+++n-------adifd-----dem..........
(PID.TID 0000.0001) //     40 .........................ljn.................zom----ddil---aac---fkic-df-fkic-dfdddgja------ddddegghjl.......tmv.uq------adifa--bbadfs..........
(PID.TID 0000.0001) //     39 ........................zhijj.....ppq.......rjmxa---bdfiea----acaigefghfaigefghf---cda-------adefggijjl......jkrvt.vnu--adejfa-aadehjm..........
(PID.TID 0000.0001) //     38 .......................nhggghr...llmn+.....vngt.g--aadfib---------ea---a--ea---aa---------bbbaddefggjhkjiv.....wphiggrna-agifaa---cljn..........
(PID.TID 0000.0001) //     37 ....................wttlheefes..+jjkmu+....oggx.x---adig-----addd-------d----------------bbbdddddeefghjkiggh...ojizsjssjbadfhca----bdj..........
(PID.TID 0000.0001) //     36 ......................qghfdddpq.+hiipoz....rrt...--adiige----gdefd-----cfd-----caebb-dd--abbdddddeeghikjhghhjy.vt......mgddddhfbaa-adh..........
(PID.TID 0000.0001) //     35 ......................adgieddkos+gghksy....tt....--gdimmnheeddcdfd---a--fd---a--ackfbaabddddddddefffgghkjihhjqt.........+sfeddfhgfefhdd+........
(PID.TID 0000.0001) //     34 l+owgp+..............laddfiighojeefght........wjlldfdelfedhkigddddd--a--ddd--a---aehdddddddddddddeeggghjjjjlqolm..........zjfedgkhfegdddl+owgp+.
(PID.TID 0000.0001) //     33 caaddgn.............jcadddfkggoedddged.........zxxifefkeddhnmgddddd-----ddd-------afddeddddddddddefgghijjkmqomkv...........zfeefkkhhddcccaaddgn.
(PID.TID 0000.0001) //     32 fdaddfl............kdbadddeiigjddddfddd.........yy..zomsrqjqpjdefeda----feda-----aaadddddddddddddeeefghjjjjkqnr..............kjfeffdcfgifdaddfl.
(PID.TID 0000.0001) //     31 heddddes..........vgdddsggfhiidaaddfddcd........xxv.....t.srroljiea-----iea------faaaadddddddddddeeefijiihhhiii................nea--adgkheddddes
(PID.TID 0000.0001) //     30 hdde--di..........rgdfehqiggjtaaaddfaaa-fx...zxxxxw++....mj.spjhdaad---adaad---adge-aaaadefddddddeefikiggggfffe................zd---adhlhdde--di
(PID.TID 0000.0001) //     29 heda--aey.........rigfffhyjjjlaaadddaaaa-ailnmxxxx++++.+..qoqqklfdddfffdfdddfffdfhka-acbddifdefgggfikjheeggfeddl...............vb---aehlheda--ae
(PID.TID 0000.0001) //     36 ......................qghfdddpq.+hiipoz....rrt...--adiige----gdefd-----cfd-----caebb-dd--abbdddddeeghikjhghhjy.vt......mgddddhfbaa-adh..........
(PID.TID 0000.0001) //     35 ......................adgieddkos+gghksy....tt....--gdimmnheeddcdfd---a--fd---a--ackfbaabddddddddefffgghkjihhjqt.........+sfeddfhgfefhdd+........
(PID.TID 0000.0001) //     34 l+owgp+..............laddfiighojeefght........wjlldfdelfedhkigddddd--a--ddd--a---aehdddddddddddddeeggghjjjjlqolm..........zjfedgkhfegdddl+owgp+.
(PID.TID 0000.0001) //     33 caaddgn.............jcadddfkggoedddged.........zxxifefkeddhnmgddddd-----ddd-------afddeddddddddddefgghijjkmqomkv...........zfeefkkhhddcccaaddgn.
(PID.TID 0000.0001) //     32 fdaddfl............kdbadddeiigjddddfddd.........yy..zomsrqjqpjdefeda----feda-----aaadddddddddddddeeefghjjjjkqnr..............kjfeffdcfgifdaddfl.
(PID.TID 0000.0001) //     31 heddddes..........vgdddsggfhiidaaddfddcd........xxv.....t.srroljiea-----iea------faaaadddddddddddeeefijiihhhiii................nea--adgkheddddes
(PID.TID 0000.0001) //     30 hdde--di..........rgdfehqiggjtaaaddfaaa-fx...zxxxxw++....mj.spjhdaad---adaad---adge-aaaadefddddddeefikiggggfffe................zd---adhlhdde--di
(PID.TID 0000.0001) //     29 heda--aey.........rigfffhyjjjlaaadddaaaa-ailnmxxxx++++.+..qoqqklfdddfffdfdddfffdfhka-acbddifdefgggfikjheeggfeddl...............vb---aehlheda--ae
(PID.TID 0000.0001) //     28 hfd---afy.........+kj.ddfojkhfa-addg--d-c-ddd-jx++.....rjggpmigqkllopidckllopidc-dlaaadddeffffggghijkigefghgfddd..............+ec---ddjjhfd---af
(PID.TID 0000.0001) //     27 heda--ag..........zm..edfxikiddaaafla-a----dedr+........vugklgftkllpqqkckllpqqkc--dddefornkfffgghhjkjhgfhhgeddddi.............rdda--dfjkheda--ag
(PID.TID 0000.0001) //     26 heda---h..........r+..ddjiimieddaadl-a-----dsw+..........yqnlkkjnlnvsqibnlnvsqib--ddddiffkkjgfghhhjkjhgfeefedddgfd............+fdb--afilheda---h
(PID.TID 0000.0001) //     25 jdd--bkn.........mmz.ndfffimlfddddejda---abfw.............zpvsrsnlljrs--nlljrs---addddddedggggghhijkiggfffffeeggdde...........nfea--adfljdd--bkn
(PID.TID 0000.0001) //     24 fd---gngu.......zkjx.fddddegkiffdddjd---aajm..............zppsotngdhsp--ngdhsp----bdddddddefhihijjljjhghggggghjedff..........pheb---ddgkfd---gng
(PID.TID 0000.0001) //     23 fedackddm.......tfejsd---degikiffeefdccfba-m..............+gmtmomidiqi--midiqi-----dddddifeefgghijklmkkjiiihihgffff........zoledcaabdfhkfedackdd
(PID.TID 0000.0001) //     22 heddhaadjz.....uqbcnnfabdfddffjifffolnljda--+.............zdntmnmngiq---mngiq------ddddddeeeeefghijlmkjihhhihggfeev........ohgfqihdddfilheddhaad
(PID.TID 0000.0001) //     21 fefgebabgq.....jpabrofdfiddddfilihjleeonb-abn....++.......sdluotmqjll---mqjll------dddddddddeffghhikmjjihhhihggfef+.......shgfflgiddfhkkfefgebab
(PID.TID 0000.0001) //     20 gggdb--addw.zgegi-allghkdddddegllhhgfeddc--kl+vhcdnw......dccotrr.tnd--ar.tnd--aa--------ddddffffhhjmjiiiiihgggfff.......xfbbbdddffggjkjgggdb--a
(PID.TID 0000.0001) //     19 jjfda--addddgkefdadkknkfd-adeegnkihhhgfddddddda------v...kddadsvv..via-bv..via-bb--d------abddddeegjmjgfgijihggffp......zfa-aaaddddfgklljjfda--a
(PID.TID 0000.0001) //     18 hgddca-dddaagndddflnkjheb-adefglllllkjhfeeddddba-----df..gddbdfux..olifdx..olifdba-ddd------adddeehkmihfefijihgggy......h------abddfhkljhgddca-d
(PID.TID 0000.0001) //     17 ggffdddddaabca-dgnomnmjfcbddfgikkklklljhgggedddddddddddn+jddbddr..yxxxqk..yxxxqk--addd------adddfghkljigeeefgikii+...++p---aaa--adddgjkjggffdddd
(PID.TID 0000.0001) //     16 lifeddfedccb--aglnpqpnmgddfpunjjjjjjjklkjihgffeddddeefdjqgdcbde..tsojdaa.tsojdaa-aadddbaaaaadddefgjlljhgeeeeffhjk....++j---------addfgkllifeddfe
(PID.TID 0000.0001) //     15 lljhgghgdcddb-dfdefffffedeou.xnmjjgghijjjkkjjhgggghikjgggldddekzxxvvga--xxvvga--aaaabcddddddddeghiklkihfedddddefi....+zsqmb-afaaabddffhjlljhgghg
(PID.TID 0000.0001) //     14 jnonnkhikkjjhfc-bfmlhfeedddglxytmjdefhhhhhiihgfedghikljifeddfhjxyydba--ayydba--aaabcdddefhfddefhjmljhhfedddddddfgj..+zzsqpnnqjigifffdefhjnonnkhi
(PID.TID 0000.0001) //     13 ijnomnlgddfeeb---gjfeddddddhgmsrjgddeefgggggedddddefgjlmghgfjgkusaa---aasaa---aabcddghiiijmljihimljhhgeddcdaadddfjlllkjihggjkmwvjddfddefijnomnlg
(PID.TID 0000.0001) //     12 fhifec----bb------------abddlnnrsiddddeedddddddddddddfhjkkiijfd----aaddc---aaddccdegijlnkihjihggggdddddccdddddddddfihggggggkkjkkjjodddeffhifec--
(PID.TID 0000.0001) //     11 a----------a-----------abbdddgmmqsjeeededddeddeddddddeeghkllnkjecacddeffcacddeffgggikmlkihgeddecbaddaaaaaaaaabbbddeghhgilolvxomnllkefgdaa-------
(PID.TID 0000.0001) //     10 ----dcaa-aaaaaaaabbdebcbddfghhjjmmjjjkprohiijkhhgggghhhggjjlommnnmijijklnmijijklnmmllkjggeddddaaaaaaaddaaabdddddefgill..zqjkigddddddbaa-----dcaa
(PID.TID 0000.0001) //      9 adddkhefjfdddddhfdekpy..xpnnpponxxyzz........zyz+y...zzxxwsmmmmmkjjjmmmkkjjjmmmkkhgggfdeeeddddddddddddddddddddeeghpy...yxnhgedddddddbaaaadddkhef
(PID.TID 0000.0001) //      8 gnlmkmopvtlkklv..............yx.............................zrppmljjjgffmljjjgfffggeeddddddddefhhigghffeddffilloxy....zyxoihgggdddddddddgnlmkmop
(PID.TID 0000.0001) //      7 .................................................................xsrvshf.xsrvshfeeeeeeeeeeffgjmmnpvwvvwy++yyyyxxz......ywttqmigghggfflyz........
(PID.TID 0000.0001) //      6 ...............................................................yyyyyyupnyyyyyupnkihhggghvyyy+.........................+yyyyyyyyxxxyy............
(PID.TID 0000.0001) //      5 ................................................................xxyyxxyyxxyyxxyyyyyzz.................................++zz..zyxy................
(PID.TID 0000.0001) //      4 ................................................................................................................................................
(PID.TID 0000.0001) //      3 ................................................................................................................................................
(PID.TID 0000.0001) //      2 ................................................................................................................................................
(PID.TID 0000.0001) //      1 ................................................................................................................................................
(PID.TID 0000.0001) //      0 ................................................................................................................................................
(PID.TID 0000.0001) //     -1 ................................................................................................................................................
(PID.TID 0000.0001) //     -2 ................................................................................................................................................
(PID.TID 0000.0001) //     -3 +zsnovwy++...+zzzzzz++++...............................................................................................................++zsnovwy
(PID.TID 0000.0001) // =======================================================
(PID.TID 0000.0001) // END OF FIELD                                          =
(PID.TID 0000.0001) // =======================================================
(PID.TID 0000.0001) 
(PID.TID 0000.0001) // =======================================================
(PID.TID 0000.0001) // Field Surface reference r-position (ini_depths)
(PID.TID 0000.0001) // CMIN =          1.000000000000000E+32
(PID.TID 0000.0001) // CMAX =         -1.000000000000000E+32
(PID.TID 0000.0001) // CINT =          0.000000000000000E+00
(PID.TID 0000.0001) // SYMBOLS (CMIN->CMAX): -abcdefghijklmnopqrstuvwxyz+
(PID.TID 0000.0001) //                  0.0: .
(PID.TID 0000.0001) // RANGE I (Lo:Hi:Step):(    -3:   132:     1)
(PID.TID 0000.0001) // RANGE J (Lo:Hi:Step):(    68:    -3:    -1)
(PID.TID 0000.0001) // RANGE K (Lo:Hi:Step):(   1:   1:   1)
(PID.TID 0000.0001) // =======================================================
(PID.TID 0000.0001) // =======================================================
(PID.TID 0000.0001) // END OF FIELD                                          =
(PID.TID 0000.0001) // =======================================================
(PID.TID 0000.0001) 
(PID.TID 0000.0001) // =======================================================
(PID.TID 0000.0001) // Field Model R_low (ini_masks_etc)
(PID.TID 0000.0001) // CMIN =         -5.200000000000000E+03
(PID.TID 0000.0001) // CMAX =         -5.000000000000000E+01
(PID.TID 0000.0001) // CINT =          1.907407407407407E+02
(PID.TID 0000.0001) // SYMBOLS (CMIN->CMAX): -abcdefghijklmnopqrstuvwxyz+
(PID.TID 0000.0001) //                  0.0: .
(PID.TID 0000.0001) // RANGE I (Lo:Hi:Step):(    -3:   132:     1)
(PID.TID 0000.0001) // RANGE J (Lo:Hi:Step):(    68:    -3:    -1)
(PID.TID 0000.0001) // RANGE K (Lo:Hi:Step):(   1:   1:   1)
(PID.TID 0000.0001) // =======================================================
(PID.TID 0000.0001) K =   1
(PID.TID 0000.0001) //                I=6       I=16      I=26      I=36      I=46      I=56      I=66      I=68      I=78      I=88      I=98      I=108     I=118     I=128
(PID.TID 0000.0001) // |--J--|321012345|789012345|789012345|789012345|789012345|789012345|789012345|781234567|901234567|901234567|901234567|901234567|901234567|901234567|9012
(PID.TID 0000.0001) //     68 ................................................................................................................................................
(PID.TID 0000.0001) //     67 ................................................................................................................................................
(PID.TID 0000.0001) //     66 ................................................................................................................................................
(PID.TID 0000.0001) //     65 ................................................................................................................................................
(PID.TID 0000.0001) //     64 ................................................................................................................................................
(PID.TID 0000.0001) //     63 ................................................................................................................................................
(PID.TID 0000.0001) //     62 ................................................................................................................................................
(PID.TID 0000.0001) //     61 +zsnovwy++...+zzzzzz++++...............................................................................................................++zsnovwy
(PID.TID 0000.0001) //     60 +zrmmnot.....+zzzzzzzzz+.........................................................................................y....................zz+zrmmnot
(PID.TID 0000.0001) //     59 omjjklnoqyz++zyzzzzzzzz.........................................................................................yxwvvyy..............zzromjjklno
(PID.TID 0000.0001) //     58 sponmlmoqwzyzzzzzzzz++.............................................................................................wrtxz............zytssponmlmo
(PID.TID 0000.0001) //     57 rqmmmkmmz............................................................................................................tvz............xwurrqmmmkmm
(PID.TID 0000.0001) //     56 vqjmmuyz..............................................................................................................yx........yyyyy..zvqjmmuyz
(PID.TID 0000.0001) //     55 xwrrux..............................................................++......++.......................................+yuu.....wonrwyzzzyxwrrux..
(PID.TID 0000.0001) //     54 wyz++............................................................ymnz+++.ymnz+++......................................wmkkr..qmmotsqooruwyz++...
(PID.TID 0000.0001) //     53 v...++.................................................zzzz...omsjjjjm++sjjjjm+++.....zjghl...........................zojjjlkkloronmpvxtv...++..
(PID.TID 0000.0001) //     52 ....++................................................+xxyy...ggijjljjmpijjljjmpz.++tdeffhjm............................zmjiijlqnljlqtpo....++..
(PID.TID 0000.0001) //     51 .......................................................xvvx..ddfdhjsqmpqdhjsqmpqdbcddddefghjlz..........................zylgghhikkjhigqy........
(PID.TID 0000.0001) //     50 z+.....................................................+uutw---aaaa-----aaa------aaaabddefghjnq..........................zvogdefglkgfddpz+......
(PID.TID 0000.0001) //     49 dg+....................................................roqja--------------------------abddefhmmx..........................+whddehlnjdddddg+.....
(PID.TID 0000.0001) //     48 oxy.....................................................va------a-------a--------------addefgjlx.....................++nj+wfddfgjnmkgeddoxy.....
(PID.TID 0000.0001) //     47 t......................................................a------a----------------------aaaddefgiks...................+qfbaaahebddgoqnhfa--t.......
(PID.TID 0000.0001) //     46 v.....................................................z------d--a-d-----a-d----------------abddg..................lfdda-----bdhksrqhdacev.......
(PID.TID 0000.0001) //     45 g.....................................................b-----fb---cdhfe---cdhfe-------------aadddk................oeaaddb-abcehlnmkgcabjdg.......
(PID.TID 0000.0001) //     44 .................................................+.vgs-----ci----aaa-----aaa--------------bddddefu..............xf--ddb---adhlkihjd-bfgi........
(PID.TID 0000.0001) //     43 ................................................+ywfdng-------------a-a-----a-a--------abddddddefhr............+vd--ab----afkjgccda-deju........
(PID.TID 0000.0001) //     42 ...............................................+zveddhna-------------dde-----ddedbba----addddddeffh............+vd-------acgifaa-aaadis.........
(PID.TID 0000.0001) //     41 .........................op.....................qdeeddn---a--a--------dd------ddheddea---abddddeefgizw.......t+++n-------adifd-----dem..........
(PID.TID 0000.0001) //     40 .........................ljn.................zom----ddil---aac---fkic-df-fkic-dfdddgja------ddddegghjl.......tmv.uq------adifa--bbadfs..........
(PID.TID 0000.0001) //     39 ........................zhijj.....ppq.......rjmxa---bdfiea----acaigefghfaigefghf---cda-------adefggijjl......jkrvt.vnu--adejfa-aadehjm..........
(PID.TID 0000.0001) //     38 .......................nhggghr...llmn+.....vngt.g--aadfib---------ea---a--ea---aa---------bbbaddefggjhkjiv.....wphiggrna-agifaa---cljn..........
(PID.TID 0000.0001) //     37 ....................wttlheefes..+jjkmu+....oggx.x---adig-----addd-------d----------------bbbdddddeefghjkiggh...ojizsjssjbadfhca----bdj..........
(PID.TID 0000.0001) //     36 ......................qghfdddpq.+hiipoz....rrt...--adiige----gdefd-----cfd-----caebb-dd--abbdddddeeghikjhghhjy.vt......mgddddhfbaa-adh..........
(PID.TID 0000.0001) //     35 ......................adgieddkos+gghksy....tt....--gdimmnheeddcdfd---a--fd---a--ackfbaabddddddddefffgghkjihhjqt.........+sfeddfhgfefhdd+........
(PID.TID 0000.0001) //     34 l+owgp+..............laddfiighojeefght........wjlldfdelfedhkigddddd--a--ddd--a---aehdddddddddddddeeggghjjjjlqolm..........zjfedgkhfegdddl+owgp+.
(PID.TID 0000.0001) //     33 caaddgn.............jcadddfkggoedddged.........zxxifefkeddhnmgddddd-----ddd-------afddeddddddddddefgghijjkmqomkv...........zfeefkkhhddcccaaddgn.
(PID.TID 0000.0001) //     32 fdaddfl............kdbadddeiigjddddfddd.........yy..zomsrqjqpjdefeda----feda-----aaadddddddddddddeeefghjjjjkqnr..............kjfeffddfgifdaddfl.
(PID.TID 0000.0001) //     31 heddddes..........vgdddsggfhiidaaddfdddd........xxv.....t.srroljiea-----iea------faaaadddddddddddeeefijiihhhiii................nea--adgkheddddes
(PID.TID 0000.0001) //     30 hdde--di..........rgdfehqiggjtaaaddfaaa-fx...zxxxxw++....mj.spjhdaad---adaad---adge-aaaadefddddddeefikiggggfffe................zd---adhlhdde--di
(PID.TID 0000.0001) //     29 heda--aey.........rigfffhyjjjlaaadddaaaa-ailnmxxxx++++.+..qoqqklfdddfffdfdddfffdfhka-acbddifdefgggfikjheeggfeddl...............vb---aehlheda--ae
(PID.TID 0000.0001) //     36 ......................qghfdddpq.+hiipoz....rrt...--adiige----gdefd-----cfd-----caebb-dd--abbdddddeeghikjhghhjy.vt......mgddddhfbaa-adh..........
(PID.TID 0000.0001) //     35 ......................adgieddkos+gghksy....tt....--gdimmnheeddcdfd---a--fd---a--ackfbaabddddddddefffgghkjihhjqt.........+sfeddfhgfefhdd+........
(PID.TID 0000.0001) //     34 l+owgp+..............laddfiighojeefght........wjlldfdelfedhkigddddd--a--ddd--a---aehdddddddddddddeeggghjjjjlqolm..........zjfedgkhfegdddl+owgp+.
(PID.TID 0000.0001) //     33 caaddgn.............jcadddfkggoedddged.........zxxifefkeddhnmgddddd-----ddd-------afddeddddddddddefgghijjkmqomkv...........zfeefkkhhddcccaaddgn.
(PID.TID 0000.0001) //     32 fdaddfl............kdbadddeiigjddddfddd.........yy..zomsrqjqpjdefeda----feda-----aaadddddddddddddeeefghjjjjkqnr..............kjfeffddfgifdaddfl.
(PID.TID 0000.0001) //     31 heddddes..........vgdddsggfhiidaaddfdddd........xxv.....t.srroljiea-----iea------faaaadddddddddddeeefijiihhhiii................nea--adgkheddddes
(PID.TID 0000.0001) //     30 hdde--di..........rgdfehqiggjtaaaddfaaa-fx...zxxxxw++....mj.spjhdaad---adaad---adge-aaaadefddddddeefikiggggfffe................zd---adhlhdde--di
(PID.TID 0000.0001) //     29 heda--aey.........rigfffhyjjjlaaadddaaaa-ailnmxxxx++++.+..qoqqklfdddfffdfdddfffdfhka-acbddifdefgggfikjheeggfeddl...............vb---aehlheda--ae
(PID.TID 0000.0001) //     28 hfd---afy.........+kj.ddfojkhfa-addg--d-c-ddd-jx++.....rjggpmigqkllopidckllopidc-dlaaadddeffffggghijkigefghgfddd..............+ec---ddjjhfd---af
(PID.TID 0000.0001) //     27 heda--ag..........zm..edfxikiddaaafla-a----dedr+........vvgklgftkllpqqkckllpqqkc--dddefornkfffgghhjkjhgfhhgeddddi.............rdda--dfjkheda--ag
(PID.TID 0000.0001) //     26 heda---h..........r+..ddjiimieddaadl-a-----dsw+..........yqnlkkjnlnvsqibnlnvsqib--ddddiffkkjgfghhhjkjhgfeefedddgfd............+fdb--afilheda---h
(PID.TID 0000.0001) //     25 jdd--bkn.........mmz.ndfffimlfddddejda---abfw.............zpvsrsnlljrs--nlljrs---addddddedggggghhijkiggfffffeeggdde...........nfea--adfljdd--bkn
(PID.TID 0000.0001) //     24 fd---gngu.......zkjx.fddddegkiffdddjd---aajm..............zppsotngdhsp--ngdhsp----bdddddddefhihijjljjhghggggghjedff..........pheb---ddgkfd---gng
(PID.TID 0000.0001) //     23 fedackddm.......tfejsd---degikiffeefdccfba-m..............+gmtmomidiqi--midiqi-----dddddifeefgghijklmkkjiiihihgffff........zoledcaabdfhkfedackdd
(PID.TID 0000.0001) //     22 heddhaadjz.....uqbcnnfabdfddffjifffolnljda--+.............zdntmnmngiq---mngiq------ddddddeeeeefghijlmkjihhhihggfeev........ohgfqihdddfilheddhaad
(PID.TID 0000.0001) //     21 fefgebabgq.....jpabrofdfiddddfilihjleeonb-abn....++.......sdluotmqjll---mqjll------dddddddddeffghhikmjjihhhihggfef+.......shgfflgiddfhkkfefgebab
(PID.TID 0000.0001) //     20 gggdb--addw.zgegi-allghkdddddegllhhgfeddc--kl+vhddnw......dccotrr.tnd--ar.tnd--aa--------ddddffffhhjmjiiiiihgggfff.......xfbbbdddffggjkjgggdb--a
(PID.TID 0000.0001) //     19 jjfda--addddgkefdadkknkfd-adeegnkihhhgfddddddda------v...kddadsvv..via-bv..via-bb--d------abddddeegjmjgfgijihggffp......zfa-aaaddddfgklljjfda--a
(PID.TID 0000.0001) //     18 hgddca-dddaagndddflnkjheb-adefglllllkjhfeeddddba-----df..gddbdfux..olifdx..olifdba-ddd------adddeehkmihfefijihgggy......h------abddfhkljhgddca-d
(PID.TID 0000.0001) //     17 ggffdddddaabca-dgnomnmjfcbddfgikkklklljhgggedddddddddddn+jddbddr..yxxxqk..yxxxqk--addd------adddfghkljigeeefgikii+...++p---aaa--adddgjkjggffdddd
(PID.TID 0000.0001) //     16 lifeddfedccb--aglnpqpnmgddfpunjjjjjjjklkjihgffeddddeefdjqgdcbde..tsojdaa.tsojdaa-aadddbaaaaadddefgjlljhgeeeeffhjk....++j---------addfgkllifeddfe
(PID.TID 0000.0001) //     15 lljhgghgdcddb-dfdefffffedeou.xnmjjgghijjjkkjjhgggghikjgggldddekzxxvvga--xxvvga--aaaabcddddddddeghiklkihfedddddefi....+zsqmb-afaaabddffhjlljhgghg
(PID.TID 0000.0001) //     14 jnonnkhikkjjhfc-bfmlhfeedddglxytmjdefhhhhhiihgfedghikljifeddfhjxyydba--ayydba--aaabcdddefhfddefhjmljhhfedddddddfgj..+zzsqpnnqjigifffdefhjnonnkhi
(PID.TID 0000.0001) //     13 ijnomnlgddfeeb---gjfeddddddhgmsrjgddeefgggggedddddefgjlmghgfjgkusaa---aasaa---aabcddghiiijmljihimljhhgeddddaadddfjlllkjihggjkmwvjddfddefijnomnlg
(PID.TID 0000.0001) //     12 fhifec----bb------------abddlnnrsiddddeedddddddddddddfhjkkiijfd----aaddc---aaddccdegijlnkihjihggggdddddccdddddddddfihggggggkkjkkjjodddeffhifec--
(PID.TID 0000.0001) //     11 a----------a-----------abbdddgmmqsjeeededddeddeddddddeeghkllnkjecacddeffcacddeffgggikmlkihgeddedbaddaaaaaaaaabbbddeghhgilolvxomnllkefgdaa-------
(PID.TID 0000.0001) //     10 ----dcaa-aaaaaaaabbdebcbddfghhjjmmjjjkprohiijkhhgggghhhggjjlommnnmijijklnmijijklnmmllkjggeddddaaaaaaaddaaabdddddefgill..zqjkigddddddbaa-----dcaa
(PID.TID 0000.0001) //      9 adddkhefjfdddddhfdekpy..xpnnpponxxyzz........zyz+y...zzxxwsmmmmmkjjjmmmkkjjjmmmkkhgggfdeeeddddddddddddddddddddeeghpy...yxnhgedddddddbaaaadddkhef
(PID.TID 0000.0001) //      8 gnlmkmopvtlkklv..............yx.............................zrppmljjjgffmljjjgfffggeeddddddddefhhigghffeddffilloxy....zyxoihgggdddddddddgnlmkmop
(PID.TID 0000.0001) //      7 .................................................................xsrvshf.xsrvshfeeeeeeeeeeffgjmmnpvwvvwy++yyyyxxz......ywttqmigghggfflyz........
(PID.TID 0000.0001) //      6 ...............................................................yyyyyyupnyyyyyupnkihhggghvyyy+.........................+yyyyyyyyxxxyy............
(PID.TID 0000.0001) //      5 ................................................................xxyyxxyyxxyyxxyyyyyzz.................................++zz..zyxy................
(PID.TID 0000.0001) //      4 ................................................................................................................................................
(PID.TID 0000.0001) //      3 ................................................................................................................................................
(PID.TID 0000.0001) //      2 ................................................................................................................................................
(PID.TID 0000.0001) //      1 ................................................................................................................................................
(PID.TID 0000.0001) //      0 ................................................................................................................................................
(PID.TID 0000.0001) //     -1 ................................................................................................................................................
(PID.TID 0000.0001) //     -2 ................................................................................................................................................
(PID.TID 0000.0001) //     -3 ................................................................................................................................................
(PID.TID 0000.0001) // =======================================================
(PID.TID 0000.0001) // END OF FIELD                                          =
(PID.TID 0000.0001) // =======================================================
(PID.TID 0000.0001) 
(PID.TID 0000.0001) // =======================================================
(PID.TID 0000.0001) // Field Model Ro_surf (ini_masks_etc)
(PID.TID 0000.0001) // CMIN =          1.000000000000000E+32
(PID.TID 0000.0001) // CMAX =         -1.000000000000000E+32
(PID.TID 0000.0001) // CINT =          0.000000000000000E+00
(PID.TID 0000.0001) // SYMBOLS (CMIN->CMAX): -abcdefghijklmnopqrstuvwxyz+
(PID.TID 0000.0001) //                  0.0: .
(PID.TID 0000.0001) // RANGE I (Lo:Hi:Step):(    -3:   132:     1)
(PID.TID 0000.0001) // RANGE J (Lo:Hi:Step):(    68:    -3:    -1)
(PID.TID 0000.0001) // RANGE K (Lo:Hi:Step):(   1:   1:   1)
(PID.TID 0000.0001) // =======================================================
(PID.TID 0000.0001) // =======================================================
(PID.TID 0000.0001) // END OF FIELD                                          =
(PID.TID 0000.0001) // =======================================================
(PID.TID 0000.0001) 
(PID.TID 0000.0001) // =======================================================
(PID.TID 0000.0001) // Field hFacC at iteration          0
(PID.TID 0000.0001) // CMIN =          1.000000000000000E+00
(PID.TID 0000.0001) // CMAX =          1.000000000000000E+00
(PID.TID 0000.0001) // CINT =          0.000000000000000E+00
(PID.TID 0000.0001) // SYMBOLS (CMIN->CMAX): -abcdefghijklmnopqrstuvwxyz+
(PID.TID 0000.0001) //                  0.0: .
(PID.TID 0000.0001) // RANGE I (Lo:Hi:Step):(    -3:   132:     1)
(PID.TID 0000.0001) // RANGE J (Lo:Hi:Step):(    68:    -3:    -1)
(PID.TID 0000.0001) // RANGE K (Lo:Hi:Step):(   1:   1:   1)
(PID.TID 0000.0001) // =======================================================
(PID.TID 0000.0001) // =======================================================
(PID.TID 0000.0001) // END OF FIELD                                          =
(PID.TID 0000.0001) // =======================================================
(PID.TID 0000.0001) 
(PID.TID 0000.0001) // =======================================================
(PID.TID 0000.0001) // Field hFacW at iteration          0
(PID.TID 0000.0001) // CMIN =          1.000000000000000E+00
(PID.TID 0000.0001) // CMAX =          1.000000000000000E+00
(PID.TID 0000.0001) // CINT =          0.000000000000000E+00
(PID.TID 0000.0001) // SYMBOLS (CMIN->CMAX): -abcdefghijklmnopqrstuvwxyz+
(PID.TID 0000.0001) //                  0.0: .
(PID.TID 0000.0001) // RANGE I (Lo:Hi:Step):(    -3:   132:     1)
(PID.TID 0000.0001) // RANGE J (Lo:Hi:Step):(    68:    -3:    -1)
(PID.TID 0000.0001) // RANGE K (Lo:Hi:Step):(   1:   1:   1)
(PID.TID 0000.0001) // =======================================================
(PID.TID 0000.0001) // =======================================================
(PID.TID 0000.0001) // END OF FIELD                                          =
(PID.TID 0000.0001) // =======================================================
(PID.TID 0000.0001) 
(PID.TID 0000.0001) // =======================================================
(PID.TID 0000.0001) // Field hFacS at iteration          0
(PID.TID 0000.0001) // CMIN =          1.000000000000000E+00
(PID.TID 0000.0001) // CMAX =          1.000000000000000E+00
(PID.TID 0000.0001) // CINT =          0.000000000000000E+00
(PID.TID 0000.0001) // SYMBOLS (CMIN->CMAX): -abcdefghijklmnopqrstuvwxyz+
(PID.TID 0000.0001) //                  0.0: .
(PID.TID 0000.0001) // RANGE I (Lo:Hi:Step):(    -3:   132:     1)
(PID.TID 0000.0001) // RANGE J (Lo:Hi:Step):(    68:    -3:    -1)
(PID.TID 0000.0001) // RANGE K (Lo:Hi:Step):(   1:   1:   1)
(PID.TID 0000.0001) // =======================================================
(PID.TID 0000.0001) // =======================================================
(PID.TID 0000.0001) // END OF FIELD                                          =
(PID.TID 0000.0001) // =======================================================
(PID.TID 0000.0001) 
(PID.TID 0000.0001) 
(PID.TID 0000.0001) // =======================================================
(PID.TID 0000.0001) // Calendar configuration >>> START <<<
(PID.TID 0000.0001) // =======================================================
(PID.TID 0000.0001) 
(PID.TID 0000.0001) modelstart = /* Start time of the model integration [s] */
(PID.TID 0000.0001)                 0.000000000000000E+00
(PID.TID 0000.0001)     ;
(PID.TID 0000.0001) modelend  = /* End time of the model integration [s] */
(PID.TID 0000.0001)                 3.600000000000000E+03
(PID.TID 0000.0001)     ;
(PID.TID 0000.0001) modelStep = /* Time interval for a model forward step [s] */
(PID.TID 0000.0001)                 9.000000000000000E+02
(PID.TID 0000.0001)     ;
(PID.TID 0000.0001) usingGregorianCalendar= /* Calendar Type: Gregorian Calendar */
(PID.TID 0000.0001)                   T
(PID.TID 0000.0001)     ;
(PID.TID 0000.0001) usingJulianCalendar = /* Calendar Type: Julian Calendar */
(PID.TID 0000.0001)                   F
(PID.TID 0000.0001)     ;
(PID.TID 0000.0001) usingNoLeapYearCal  = /* Calendar Type: without Leap Year */
(PID.TID 0000.0001)                   F
(PID.TID 0000.0001)     ;
(PID.TID 0000.0001) usingModelCalendar  = /* Calendar Type: Model Calendar */
(PID.TID 0000.0001)                   F
(PID.TID 0000.0001)     ;
(PID.TID 0000.0001) modelStartDate YYYYMMDD = /* Model start date YYYY-MM-DD */
(PID.TID 0000.0001)                19920101
(PID.TID 0000.0001)     ;
(PID.TID 0000.0001)   modelStartDate HHMMSS = /* Model start date HH-MM-SS  */
(PID.TID 0000.0001)                       0
(PID.TID 0000.0001)     ;
(PID.TID 0000.0001) modelEndDate   YYYYMMDD = /* Model end date YYYY-MM-DD */
(PID.TID 0000.0001)                19920101
(PID.TID 0000.0001)     ;
(PID.TID 0000.0001)   modelEndDate   HHMMSS = /* Model end date HH-MM-SS  */
(PID.TID 0000.0001)                   10000
(PID.TID 0000.0001)     ;
(PID.TID 0000.0001) intyears = /* Number of calendar years affected by the integration */
(PID.TID 0000.0001)                       1
(PID.TID 0000.0001)     ;
(PID.TID 0000.0001) intmonths= /* Number of calendar months affected by the integration */
(PID.TID 0000.0001)                       1
(PID.TID 0000.0001)     ;
(PID.TID 0000.0001) intdays = /* Number of calendar days affected by the integration */
(PID.TID 0000.0001)                       1
(PID.TID 0000.0001)     ;
(PID.TID 0000.0001) modelIter0 = /* Base timestep number  */
(PID.TID 0000.0001)                       0
(PID.TID 0000.0001)     ;
(PID.TID 0000.0001) modelIterEnd = /* Final timestep number  */
(PID.TID 0000.0001)                       4
(PID.TID 0000.0001)     ;
(PID.TID 0000.0001) modelIntSteps= /* Number of model timesteps  */
(PID.TID 0000.0001)                       4
(PID.TID 0000.0001)     ;
(PID.TID 0000.0001) 
(PID.TID 0000.0001) // =======================================================
(PID.TID 0000.0001) // Calendar configuration  >>> END <<<
(PID.TID 0000.0001) // =======================================================
(PID.TID 0000.0001) 
(PID.TID 0000.0001) GAD_INIT_FIXED: GAD_OlMinSize=  1  0  1
(PID.TID 0000.0001) 
(PID.TID 0000.0001) // ===================================
(PID.TID 0000.0001) // GAD parameters :
(PID.TID 0000.0001) // ===================================
(PID.TID 0000.0001) tempAdvScheme =   /* Temp. Horiz.Advection scheme selector */
(PID.TID 0000.0001)                       2
(PID.TID 0000.0001)     ;
(PID.TID 0000.0001) tempVertAdvScheme =   /* Temp. Vert. Advection scheme selector */
(PID.TID 0000.0001)                       2
(PID.TID 0000.0001)     ;
(PID.TID 0000.0001) tempMultiDimAdvec =   /* use Muti-Dim Advec method for Temp */
(PID.TID 0000.0001)                   F
(PID.TID 0000.0001)     ;
(PID.TID 0000.0001) tempSOM_Advection = /* use 2nd Order Moment Advection for Temp */
(PID.TID 0000.0001)                   F
(PID.TID 0000.0001)     ;
(PID.TID 0000.0001) AdamsBashforthGt = /* apply Adams-Bashforth extrapolation on Gt */
(PID.TID 0000.0001)                   T
(PID.TID 0000.0001)     ;
(PID.TID 0000.0001) AdamsBashforth_T = /* apply Adams-Bashforth extrapolation on Temp */
(PID.TID 0000.0001)                   F
(PID.TID 0000.0001)     ;
(PID.TID 0000.0001) saltAdvScheme =   /* Salt. Horiz.advection scheme selector */
(PID.TID 0000.0001)                       2
(PID.TID 0000.0001)     ;
(PID.TID 0000.0001) saltVertAdvScheme =   /* Salt. Vert. Advection scheme selector */
(PID.TID 0000.0001)                       2
(PID.TID 0000.0001)     ;
(PID.TID 0000.0001) saltMultiDimAdvec =   /* use Muti-Dim Advec method for Salt */
(PID.TID 0000.0001)                   F
(PID.TID 0000.0001)     ;
(PID.TID 0000.0001) saltSOM_Advection = /* use 2nd Order Moment Advection for Salt */
(PID.TID 0000.0001)                   F
(PID.TID 0000.0001)     ;
(PID.TID 0000.0001) AdamsBashforthGs = /* apply Adams-Bashforth extrapolation on Gs */
(PID.TID 0000.0001)                   T
(PID.TID 0000.0001)     ;
(PID.TID 0000.0001) AdamsBashforth_S = /* apply Adams-Bashforth extrapolation on Salt */
(PID.TID 0000.0001)                   F
(PID.TID 0000.0001)     ;
(PID.TID 0000.0001) // ===================================
(PID.TID 0000.0001) 
(PID.TID 0000.0001) // =======================================================
(PID.TID 0000.0001) // External forcing (EXF) configuration >>> START <<<
(PID.TID 0000.0001) // =======================================================
(PID.TID 0000.0001) 
(PID.TID 0000.0001)  EXF general parameters:
(PID.TID 0000.0001) 
(PID.TID 0000.0001) exf_iprec = /* exf file precision */
(PID.TID 0000.0001)                      32
(PID.TID 0000.0001)     ;
(PID.TID 0000.0001) useExfYearlyFields = /* add extension _YEAR to input file names */
(PID.TID 0000.0001)                   F
(PID.TID 0000.0001)     ;
(PID.TID 0000.0001) twoDigitYear = /* use 2-digit year extension */
(PID.TID 0000.0001)                   F
(PID.TID 0000.0001)     ;
(PID.TID 0000.0001) useExfCheckRange = /* check for fields range */
(PID.TID 0000.0001)                   F
(PID.TID 0000.0001)     ;
(PID.TID 0000.0001) exf_output_interp = /* output directly interpolation result */
(PID.TID 0000.0001)                   F
(PID.TID 0000.0001)     ;
(PID.TID 0000.0001) exf_debugLev = /* select EXF-debug printing level */
(PID.TID 0000.0001)                       5
(PID.TID 0000.0001)     ;
(PID.TID 0000.0001) exf_monFreq  = /* EXF monitor frequency [ s ] */
(PID.TID 0000.0001)                 1.000000000000000E+00
(PID.TID 0000.0001)     ;
(PID.TID 0000.0001) repeatPeriod = /* period for cycling forcing dataset [ s ] */
(PID.TID 0000.0001)                 0.000000000000000E+00
(PID.TID 0000.0001)     ;
(PID.TID 0000.0001) climTempFreeze= /* Minimum climatological temperature [deg.C] */
(PID.TID 0000.0001)                -1.900000000000000E+00
(PID.TID 0000.0001)     ;
(PID.TID 0000.0001) windStressMax = /* Maximum absolute windstress [ Pa ] */
(PID.TID 0000.0001)                 2.000000000000000E+00
(PID.TID 0000.0001)     ;
(PID.TID 0000.0001) stressIsOnCgrid = /* set u,v_stress on Arakawa C-grid */
(PID.TID 0000.0001)                   F
(PID.TID 0000.0001)     ;
(PID.TID 0000.0001) rotateStressOnAgrid = /* rotate u,v_stress on Arakawa A-grid */
(PID.TID 0000.0001)                   F
(PID.TID 0000.0001)     ;
(PID.TID 0000.0001) cen2kel = /* conversion of deg. Centigrade to Kelvin [K] */
(PID.TID 0000.0001)                 2.731500000000000E+02
(PID.TID 0000.0001)     ;
(PID.TID 0000.0001) gravity_mks= /* gravitational acceleration [m/s^2] */
(PID.TID 0000.0001)                 9.810000000000000E+00
(PID.TID 0000.0001)     ;
(PID.TID 0000.0001) atmrho =  /* mean atmospheric density [kg/m^3] */
(PID.TID 0000.0001)                 1.200000000000000E+00
(PID.TID 0000.0001)     ;
(PID.TID 0000.0001) atmcp =  /* mean atmospheric specific heat [J/kg/K] */
(PID.TID 0000.0001)                 1.005000000000000E+03
(PID.TID 0000.0001)     ;
(PID.TID 0000.0001) flamb =  /* latent heat of evaporation [J/kg] */
(PID.TID 0000.0001)                 2.500000000000000E+06
(PID.TID 0000.0001)     ;
(PID.TID 0000.0001) flami =  /* latent heat of pure-ice melting [J/kg] */
(PID.TID 0000.0001)                 3.340000000000000E+05
(PID.TID 0000.0001)     ;
(PID.TID 0000.0001) cvapor_fac = /* const. for Saturation calculation [?] */
(PID.TID 0000.0001)                 6.403800000000000E+05
(PID.TID 0000.0001)     ;
(PID.TID 0000.0001) cvapor_exp = /* const. for Saturation calculation [?] */
(PID.TID 0000.0001)                 5.107400000000000E+03
(PID.TID 0000.0001)     ;
(PID.TID 0000.0001) cvapor_fac_ice= /* const. for Saturation calculation [?] */
(PID.TID 0000.0001)                 1.163780000000000E+07
(PID.TID 0000.0001)     ;
(PID.TID 0000.0001) cvapor_exp_ice= /* const. for Saturation calculation [?] */
(PID.TID 0000.0001)                 5.897800000000000E+03
(PID.TID 0000.0001)     ;
(PID.TID 0000.0001) humid_fac = /* humidity coef. in virtual temp. [(kg/kg)^-1] */
(PID.TID 0000.0001)                 6.060000000000000E-01
(PID.TID 0000.0001)     ;
(PID.TID 0000.0001) gamma_blk = /* adiabatic lapse rate [?] */
(PID.TID 0000.0001)                 1.000000000000000E-02
(PID.TID 0000.0001)     ;
(PID.TID 0000.0001) saltsat = /* reduction of Qsat over salty water [-] */
(PID.TID 0000.0001)                 9.800000000000000E-01
(PID.TID 0000.0001)     ;
(PID.TID 0000.0001) noNegativeEvap = /* prevent negative Evaporation */
(PID.TID 0000.0001)                   F
(PID.TID 0000.0001)     ;
(PID.TID 0000.0001) sstExtrapol = /* extrapolation coeff from lev. 1 & 2 to surf [-] */
(PID.TID 0000.0001)                 0.000000000000000E+00
(PID.TID 0000.0001)     ;
(PID.TID 0000.0001) cDrag_1 = /* coef used in drag calculation [?] */
(PID.TID 0000.0001)                 2.700000000000000E-03
(PID.TID 0000.0001)     ;
(PID.TID 0000.0001) cDrag_2 = /* coef used in drag calculation [?] */
(PID.TID 0000.0001)                 1.420000000000000E-04
(PID.TID 0000.0001)     ;
(PID.TID 0000.0001) cDrag_3 = /* coef used in drag calculation [?] */
(PID.TID 0000.0001)                 7.640000000000000E-05
(PID.TID 0000.0001)     ;
(PID.TID 0000.0001) cStanton_1 = /* coef used in Stanton number calculation [?] */
(PID.TID 0000.0001)                 3.270000000000000E-02
(PID.TID 0000.0001)     ;
(PID.TID 0000.0001) cStanton_2 = /* coef used in Stanton number calculation [?] */
(PID.TID 0000.0001)                 1.800000000000000E-02
(PID.TID 0000.0001)     ;
(PID.TID 0000.0001) cDalton = /* coef used in Dalton number calculation [?] */
(PID.TID 0000.0001)                 3.460000000000000E-02
(PID.TID 0000.0001)     ;
(PID.TID 0000.0001) exf_scal_BulkCdn= /* Drag coefficient scaling factor [-] */
(PID.TID 0000.0001)                 1.000000000000000E+00
(PID.TID 0000.0001)     ;
(PID.TID 0000.0001) zolmin = /* minimum stability parameter [?] */
(PID.TID 0000.0001)                -1.000000000000000E+02
(PID.TID 0000.0001)     ;
(PID.TID 0000.0001) psim_fac = /* coef used in turbulent fluxes calculation [-] */
(PID.TID 0000.0001)                 5.000000000000000E+00
(PID.TID 0000.0001)     ;
(PID.TID 0000.0001) zref =  /* reference height [ m ] */
(PID.TID 0000.0001)                 1.000000000000000E+01
(PID.TID 0000.0001)     ;
(PID.TID 0000.0001) hu =  /* height of mean wind [ m ] */
(PID.TID 0000.0001)                 1.000000000000000E+01
(PID.TID 0000.0001)     ;
(PID.TID 0000.0001) ht =  /* height of mean temperature [ m ] */
(PID.TID 0000.0001)                 2.000000000000000E+00
(PID.TID 0000.0001)     ;
(PID.TID 0000.0001) hq =  /* height of mean spec.humidity [ m ] */
(PID.TID 0000.0001)                 2.000000000000000E+00
(PID.TID 0000.0001)     ;
(PID.TID 0000.0001) uMin = /* minimum wind speed [m/s] */
(PID.TID 0000.0001)                 5.000000000000000E-01
(PID.TID 0000.0001)     ;
(PID.TID 0000.0001) useStabilityFct_overIce= /* transfert Coeffs over sea-ice depend on stability */
(PID.TID 0000.0001)                   F
(PID.TID 0000.0001)     ;
(PID.TID 0000.0001) exf_iceCd = /* drag coefficient over sea-ice (fixed) [-] */
(PID.TID 0000.0001)                 1.630000000000000E-03
(PID.TID 0000.0001)     ;
(PID.TID 0000.0001) exf_iceCe = /* transfert coeff. over sea-ice, for Evap (fixed) [-] */
(PID.TID 0000.0001)                 1.630000000000000E-03
(PID.TID 0000.0001)     ;
(PID.TID 0000.0001) exf_iceCh = /* transfert coeff. over sea-ice, Sens.Heat.(fixed)[-] */
(PID.TID 0000.0001)                 1.630000000000000E-03
(PID.TID 0000.0001)     ;
(PID.TID 0000.0001) exf_albedo =  /* Sea-water albedo [-] */
(PID.TID 0000.0001)                 1.000000000000000E-01
(PID.TID 0000.0001)     ;
(PID.TID 0000.0001) useExfZenAlbedo = /* Sea-water albedo varies with zenith angle */
(PID.TID 0000.0001)                   T
(PID.TID 0000.0001)     ;
(PID.TID 0000.0001) select_ZenAlbedo = /* Sea-water albedo computation method */
(PID.TID 0000.0001)                       1
(PID.TID 0000.0001)     ;
(PID.TID 0000.0001) useExfZenIncoming = /* compute incoming solar radiation */
(PID.TID 0000.0001)                   T
(PID.TID 0000.0001)     ;
(PID.TID 0000.0001) ocean_emissivity = /* longwave ocean-surface emissivity [-] */
(PID.TID 0000.0001)                 9.700000000000000E-01
(PID.TID 0000.0001)     ;
(PID.TID 0000.0001) ice_emissivity = /* longwave seaice emissivity [-] */
(PID.TID 0000.0001)                 9.500000000000000E-01
(PID.TID 0000.0001)     ;
(PID.TID 0000.0001) snow_emissivity = /* longwave snow  emissivity [-] */
(PID.TID 0000.0001)                 9.500000000000000E-01
(PID.TID 0000.0001)     ;
(PID.TID 0000.0001) 
(PID.TID 0000.0001)  EXF main CPP flags:
(PID.TID 0000.0001) 
(PID.TID 0000.0001) // USE_EXF_INTERPOLATION:              defined
(PID.TID 0000.0001) // ALLOW_ATM_TEMP:                     defined
(PID.TID 0000.0001) // ALLOW_ATM_WIND (useAtmWind):        defined
(PID.TID 0000.0001) // ALLOW_DOWNWARD_RADIATION:           defined
(PID.TID 0000.0001) // ALLOW_BULKFORMULAE:                 defined
(PID.TID 0000.0001) 
(PID.TID 0000.0001)    Zonal wind forcing period is                        -12.
(PID.TID 0000.0001)    Zonal wind forcing is read from file:
(PID.TID 0000.0001)    >> EIG_u10m_2000 <<
(PID.TID 0000.0001)    interpolate "uwind" (method= 12 ):
(PID.TID 0000.0001)    lon0=-178.50000, nlon=   120, lon_inc= 3.0000000
(PID.TID 0000.0001)    lat0= -88.50000, nlat=    60, lat_inc= 3.0000000
(PID.TID 0000.0001) 
(PID.TID 0000.0001)    Meridional wind forcing period is                   -12.
(PID.TID 0000.0001)    Meridional wind forcing is read from file:
(PID.TID 0000.0001)    >> EIG_v10m_2000 <<
(PID.TID 0000.0001)    interpolate "vwind" (method= 22 ):
(PID.TID 0000.0001)    lon0=-178.50000, nlon=   120, lon_inc= 3.0000000
(PID.TID 0000.0001)    lat0= -88.50000, nlat=    60, lat_inc= 3.0000000
(PID.TID 0000.0001)     Interp. U & V comp. together: uvInterp_wind =    T
(PID.TID 0000.0001) 
(PID.TID 0000.0001)    Atmospheric temperature period is                   -12.
(PID.TID 0000.0001)    Atmospheric temperature is read from file:
(PID.TID 0000.0001)    >> EIG_tmp2m_degC_plus_ECCO_v4r1_ctrl_2000 <<
(PID.TID 0000.0001)    interpolate "atemp" (method=  1 ):
(PID.TID 0000.0001)    lon0=-178.50000, nlon=   120, lon_inc= 3.0000000
(PID.TID 0000.0001)    lat0= -88.50000, nlat=    60, lat_inc= 3.0000000
(PID.TID 0000.0001) 
(PID.TID 0000.0001)    Atmospheric specific humidity period is             -12.
(PID.TID 0000.0001)    Atmospheric specific humidity is read from file:
(PID.TID 0000.0001)    >> EIG_spfh2m_plus_ECCO_v4r1_ctrl_2000 <<
(PID.TID 0000.0001)    interpolate "aqh" (method=  1 ):
(PID.TID 0000.0001)    lon0=-178.50000, nlon=   120, lon_inc= 3.0000000
(PID.TID 0000.0001)    lat0= -88.50000, nlat=    60, lat_inc= 3.0000000
(PID.TID 0000.0001) 
(PID.TID 0000.0001) // ALLOW_READ_TURBFLUXES:          NOT defined
(PID.TID 0000.0001) // EXF_READ_EVAP:                  NOT defined
(PID.TID 0000.0001) 
(PID.TID 0000.0001)    Precipitation data period is                        -12.
(PID.TID 0000.0001)    Precipitation data is read from file:
(PID.TID 0000.0001)    >> EIG_rain_plus_ECCO_v4r1_ctrl_2000 <<
(PID.TID 0000.0001)    interpolate "precip" (method=  1 ):
(PID.TID 0000.0001)    lon0=-178.50000, nlon=   120, lon_inc= 3.0000000
(PID.TID 0000.0001)    lat0= -88.50000, nlat=    60, lat_inc= 3.0000000
(PID.TID 0000.0001) 
(PID.TID 0000.0001) // ALLOW_RUNOFF:                       defined
(PID.TID 0000.0001)    Runoff data period is                               -12.
(PID.TID 0000.0001)    Runoff data is read from file:
(PID.TID 0000.0001)    >> runoff-2d-Fekete-1deg-mon-V4-SMOOTH.bin <<
(PID.TID 0000.0001)    interpolate "runoff" (method=  1 ):
(PID.TID 0000.0001)    lon0=-178.50000, nlon=   120, lon_inc= 3.0000000
(PID.TID 0000.0001)    lat0= -88.50000, nlat=    60, lat_inc= 3.0000000
(PID.TID 0000.0001) 
(PID.TID 0000.0001) // ALLOW_RUNOFTEMP:                NOT defined
(PID.TID 0000.0001) // ALLOW_SALTFLX:                  NOT defined
(PID.TID 0000.0001) 
(PID.TID 0000.0001)    Downward shortwave flux period is                   -12.
(PID.TID 0000.0001)    Downward shortwave flux is read from file:
(PID.TID 0000.0001)    >> EIG_dsw_plus_ECCO_v4r1_ctrl_2000 <<
(PID.TID 0000.0001)    interpolate "swdown" (method=  1 ):
(PID.TID 0000.0001)    lon0=-178.50000, nlon=   120, lon_inc= 3.0000000
(PID.TID 0000.0001)    lat0= -88.50000, nlat=    60, lat_inc= 3.0000000
(PID.TID 0000.0001) 
(PID.TID 0000.0001)    Downward longwave flux period is                    -12.
(PID.TID 0000.0001)    Downward longwave flux is read from file:
(PID.TID 0000.0001)    >> EIG_dlw_plus_ECCO_v4r1_ctrl_2000 <<
(PID.TID 0000.0001)    interpolate "lwdown" (method=  1 ):
(PID.TID 0000.0001)    lon0=-178.50000, nlon=   120, lon_inc= 3.0000000
(PID.TID 0000.0001)    lat0= -88.50000, nlat=    60, lat_inc= 3.0000000
(PID.TID 0000.0001) 
(PID.TID 0000.0001)    Atmospheric pCO2 forcing period is               -12.
(PID.TID 0000.0001)    Atmospheric pCO2 forcing is read from file:
(PID.TID 0000.0001)    >>  apCO2_2000  <<
(PID.TID 0000.0001) 
(PID.TID 0000.0001) // =======================================================
(PID.TID 0000.0001) // External forcing (EXF) climatology configuration :
(PID.TID 0000.0001) // =======================================================
(PID.TID 0000.0001) 
(PID.TID 0000.0001) // ALLOW_CLIMSST_RELAXATION:           defined
(PID.TID 0000.0001)    climsst relaxation is NOT used
(PID.TID 0000.0001) 
(PID.TID 0000.0001) // ALLOW_CLIMSSS_RELAXATION:           defined
(PID.TID 0000.0001)    climsss relaxation is NOT used
(PID.TID 0000.0001) 
(PID.TID 0000.0001) // =======================================================
(PID.TID 0000.0001) // External forcing (EXF) configuration  >>> END <<<
(PID.TID 0000.0001) // =======================================================
(PID.TID 0000.0001) 
(PID.TID 0000.0001) PTRACERS_INIT_FIXED: updated GAD_OlMinSize=  2  0  1
 QQ load dic parameters, initial fixed
(PID.TID 0000.0001) 
(PID.TID 0000.0001) // ===================================
(PID.TID 0000.0001) //  DIC_INIT_FIXED parameters :
(PID.TID 0000.0001) nlev = /* Number of level over which Bio act is computed */
(PID.TID 0000.0001)                       6
(PID.TID 0000.0001)     ;
(PID.TID 0000.0001) // =======================================================
(PID.TID 0000.0001) // Seaice configuration (SEAICE_PARM01) >>> START <<<
(PID.TID 0000.0001) // =======================================================
(PID.TID 0000.0001) 
(PID.TID 0000.0001)    Seaice time stepping configuration   > START <
(PID.TID 0000.0001)    ----------------------------------------------
(PID.TID 0000.0001) SEAICE_deltaTtherm= /* thermodynamic timestep */
(PID.TID 0000.0001)                 9.000000000000000E+02
(PID.TID 0000.0001)     ;
(PID.TID 0000.0001) SEAICE_deltaTdyn  = /* dynamic timestep */
(PID.TID 0000.0001)                 9.000000000000000E+02
(PID.TID 0000.0001)     ;
(PID.TID 0000.0001) SEAICE_deltaTevp  = /* EVP timestep */
(PID.TID 0000.0001)                 6.000000000000000E+01
(PID.TID 0000.0001)     ;
(PID.TID 0000.0001) SEAICEuseBDF2  = /* use backw. differencing for mom. eq. */
(PID.TID 0000.0001)                   F
(PID.TID 0000.0001)     ;
(PID.TID 0000.0001) SEAICErestoreUnderIce  = /* restore T and S under ice */
(PID.TID 0000.0001)                   T
(PID.TID 0000.0001)     ;
(PID.TID 0000.0001) 
(PID.TID 0000.0001)    Seaice dynamics configuration   > START <
(PID.TID 0000.0001)    ------------------------------------------
(PID.TID 0000.0001) SEAICEuseDYNAMICS = /* use dynamics */
(PID.TID 0000.0001)                   T
(PID.TID 0000.0001)     ;
(PID.TID 0000.0001) model grid type   = /* type of sea ice model grid */
(PID.TID 0000.0001)               'C-GRID'
(PID.TID 0000.0001)     ;
(PID.TID 0000.0001) SEAICEuseStrImpCpl = /* use strongly implicit coupling */
(PID.TID 0000.0001)                   F
(PID.TID 0000.0001)     ;
(PID.TID 0000.0001) SEAICEusePicardAsPrecon = /* Picard as preconditioner */
(PID.TID 0000.0001)                   F
(PID.TID 0000.0001)     ;
(PID.TID 0000.0001) SEAICEuseLSR      = /* use default Picard-LSR solver */
(PID.TID 0000.0001)                   F
(PID.TID 0000.0001)     ;
(PID.TID 0000.0001) SEAICEuseKrylov   = /* use Picard-Krylov solver */
(PID.TID 0000.0001)                   F
(PID.TID 0000.0001)     ;
(PID.TID 0000.0001) SEAICEuseEVP      = /* use EVP solver rather than LSR */
(PID.TID 0000.0001)                   T
(PID.TID 0000.0001)     ;
(PID.TID 0000.0001) SEAICEuseJFNK     = /* use JFNK solver */
(PID.TID 0000.0001)                   F
(PID.TID 0000.0001)     ;
(PID.TID 0000.0001) SEAICEuseFREEDRIFT = /* use free drift solution */
(PID.TID 0000.0001)                   F
(PID.TID 0000.0001)     ;
(PID.TID 0000.0001) OCEAN_drag        = /* air-ocean drag coefficient */
(PID.TID 0000.0001)                 1.000000000000000E-03
(PID.TID 0000.0001)     ;
(PID.TID 0000.0001) SEAICE_drag       = /* air-ice drag coefficient */
(PID.TID 0000.0001)                 2.000000000000000E-03
(PID.TID 0000.0001)     ;
(PID.TID 0000.0001) SEAICE_drag_south      = /* Southern Ocean SEAICE_drag */
(PID.TID 0000.0001)                 2.000000000000000E-03
(PID.TID 0000.0001)     ;
(PID.TID 0000.0001) SEAICE_waterDrag  = /* water-ice drag * density */
(PID.TID 0000.0001)                 5.500000000000000E+00
(PID.TID 0000.0001)     ;
(PID.TID 0000.0001) SEAICE_waterDrag_south = /* Southern Ocean waterDrag */
(PID.TID 0000.0001)                 5.500000000000000E+00
(PID.TID 0000.0001)     ;
(PID.TID 0000.0001) SEAICEuseTilt     = /* include surface tilt in dyna. */
(PID.TID 0000.0001)                   F
(PID.TID 0000.0001)     ;
(PID.TID 0000.0001) SEAICEuseTEM      = /* use truncated ellipse rheology */
(PID.TID 0000.0001)                   F
(PID.TID 0000.0001)     ;
(PID.TID 0000.0001) SEAICE_strength   = /* sea-ice strength Pstar */
(PID.TID 0000.0001)                 2.750000000000000E+04
(PID.TID 0000.0001)     ;
(PID.TID 0000.0001) SEAICE_cStar      = /* sea-ice strength parameter cStar */
(PID.TID 0000.0001)                 2.000000000000000E+01
(PID.TID 0000.0001)     ;
(PID.TID 0000.0001) SEAICEpressReplFac= /* press. replacement method factor */
(PID.TID 0000.0001)                 1.000000000000000E+00
(PID.TID 0000.0001)     ;
(PID.TID 0000.0001) SEAICE_tensilFac  = /* sea-ice tensile strength factor */
(PID.TID 0000.0001)                 0.000000000000000E+00
(PID.TID 0000.0001)     ;
(PID.TID 0000.0001) SEAICE_tensilDepth= /* crit. depth for tensile strength */
(PID.TID 0000.0001)                 0.000000000000000E+00
(PID.TID 0000.0001)     ;
(PID.TID 0000.0001) SEAICEpresH0   = /* sea-ice strength Heff threshold */
(PID.TID 0000.0001)                 2.000000000000000E+00
(PID.TID 0000.0001)     ;
(PID.TID 0000.0001) SEAICEpresPow0 = /* exponent for Heff<SEAICEpresH0 */
(PID.TID 0000.0001)                       1
(PID.TID 0000.0001)     ;
(PID.TID 0000.0001) SEAICEpresPow1 = /* exponent for Heff>SEAICEpresH0 */
(PID.TID 0000.0001)                       3
(PID.TID 0000.0001)     ;
(PID.TID 0000.0001) SEAICEetaZmethod = /* method computing eta at Z-point */
(PID.TID 0000.0001)                       0
(PID.TID 0000.0001)     ;
(PID.TID 0000.0001) SEAICE_zetaMin    = /* lower bound for viscosity */
(PID.TID 0000.0001)                 0.000000000000000E+00
(PID.TID 0000.0001)     ;
(PID.TID 0000.0001) SEAICE_eccen    = /* elliptical yield curve eccent */
(PID.TID 0000.0001)                 2.000000000000000E+00
(PID.TID 0000.0001)     ;
(PID.TID 0000.0001) SEAICEstressFactor    = /* wind stress scaling factor */
(PID.TID 0000.0001)                 1.000000000000000E+00
(PID.TID 0000.0001)     ;
(PID.TID 0000.0001) SEAICE_airTurnAngle    = /* air-ice turning angle */
(PID.TID 0000.0001)                 0.000000000000000E+00
(PID.TID 0000.0001)     ;
(PID.TID 0000.0001) SEAICE_waterTurnAngle  = /* ice-water turning angle */
(PID.TID 0000.0001)                 0.000000000000000E+00
(PID.TID 0000.0001)     ;
(PID.TID 0000.0001) SEAICEuseMetricTerms = /* use metric terms */
(PID.TID 0000.0001)                   T
(PID.TID 0000.0001)     ;
(PID.TID 0000.0001) SEAICE_no_slip    = /* no slip boundary conditions */
(PID.TID 0000.0001)                   F
(PID.TID 0000.0001)     ;
(PID.TID 0000.0001) SEAICE_2ndOrderBC = /* 2nd order no slip boundary conditions */
(PID.TID 0000.0001)                   F
(PID.TID 0000.0001)     ;
(PID.TID 0000.0001) SEAICE_clipVeloctities = /* impose max. vels. */
(PID.TID 0000.0001)                   T
(PID.TID 0000.0001)     ;
(PID.TID 0000.0001) useHB87stressCoupling  = /* altern. ice-ocean stress */
(PID.TID 0000.0001)                   F
(PID.TID 0000.0001)     ;
(PID.TID 0000.0001) SEAICEscaleSurfStress  = /* scale atm. and ocean-surface stress with AREA */
(PID.TID 0000.0001)                   F
(PID.TID 0000.0001)     ;
(PID.TID 0000.0001) SEAICE_maskRHS    = /* mask RHS of solver */
(PID.TID 0000.0001)                   F
(PID.TID 0000.0001)     ;
(PID.TID 0000.0001) SEAICEaddSnowMass = /* add snow mass to seaiceMassC/U/V */
(PID.TID 0000.0001)                   F
(PID.TID 0000.0001)     ;
(PID.TID 0000.0001) SEAICE_elasticParm= /* EVP elastic parameter */
(PID.TID 0000.0001)                 3.333333333333333E-01
(PID.TID 0000.0001)     ;
(PID.TID 0000.0001) SEAICE_evpTauRelax= /* EVP relaxation timescale */
(PID.TID 0000.0001)                 3.000000000000000E+02
(PID.TID 0000.0001)     ;
(PID.TID 0000.0001) SEAICE_evpDampC   = /* EVP damping parameter */
(PID.TID 0000.0001)                -1.000000000000000E+00
(PID.TID 0000.0001)     ;
(PID.TID 0000.0001) SEAICEuseEVPstar  = /* use EVP* solver */
(PID.TID 0000.0001)                   F
(PID.TID 0000.0001)     ;
(PID.TID 0000.0001) SEAICEuseEVPrev   = /* use "revisited EVP" solver */
(PID.TID 0000.0001)                   F
(PID.TID 0000.0001)     ;
(PID.TID 0000.0001) SEAICE_evpAlpha   = /* EVP* parameter*/
(PID.TID 0000.0001)                 1.000000000000000E+01
(PID.TID 0000.0001)     ;
(PID.TID 0000.0001) SEAICE_evpBeta    = /* EVP*  parameter */
(PID.TID 0000.0001)                 1.500000000000000E+01
(PID.TID 0000.0001)     ;
(PID.TID 0000.0001) SEAICEaEVPcoeff   = /* adaptive EVP parameter*/
(PID.TID 0000.0001)                 1.234567000000000E+05
(PID.TID 0000.0001)     ;
(PID.TID 0000.0001) SEAICEaEVPcStar   = /* adaptive EVP parameter*/
(PID.TID 0000.0001)                 1.234567000000000E+05
(PID.TID 0000.0001)     ;
(PID.TID 0000.0001) SEAICEaEVPalphaMin= /* adaptive EVP parameter*/
(PID.TID 0000.0001)                 1.234567000000000E+05
(PID.TID 0000.0001)     ;
(PID.TID 0000.0001) SEAICEnEVPstarSteps = /* num. of EVP* steps */
(PID.TID 0000.0001)               123456789
(PID.TID 0000.0001)     ;
(PID.TID 0000.0001) SEAICEuseEVPpickup= /* start EVP solver with EVP pickup*/
(PID.TID 0000.0001)                   T
(PID.TID 0000.0001)     ;
(PID.TID 0000.0001) 
(PID.TID 0000.0001)    Seaice advection diffusion config,   > START <
(PID.TID 0000.0001)    -----------------------------------------------
(PID.TID 0000.0001) SEAICEmomAdvection = /* advect sea ice momentum */
(PID.TID 0000.0001)                   F
(PID.TID 0000.0001)     ;
(PID.TID 0000.0001) SEAICEadvHeff = /* advect effective ice thickness */
(PID.TID 0000.0001)                   T
(PID.TID 0000.0001)     ;
(PID.TID 0000.0001) SEAICEadvArea = /* advect fractional ice area */
(PID.TID 0000.0001)                   T
(PID.TID 0000.0001)     ;
(PID.TID 0000.0001) SEAICEadvSnow = /* advect snow layer together with ice */
(PID.TID 0000.0001)                   T
(PID.TID 0000.0001)     ;
(PID.TID 0000.0001) SEAICEadvScheme   = /* advection scheme for ice */
(PID.TID 0000.0001)                      30
(PID.TID 0000.0001)     ;
(PID.TID 0000.0001) SEAICEadvSchArea   = /* advection scheme for area */
(PID.TID 0000.0001)                      30
(PID.TID 0000.0001)     ;
(PID.TID 0000.0001) SEAICEadvSchHeff   = /* advection scheme for thickness */
(PID.TID 0000.0001)                      30
(PID.TID 0000.0001)     ;
(PID.TID 0000.0001) SEAICEadvSchSnow   = /* advection scheme for snow */
(PID.TID 0000.0001)                      30
(PID.TID 0000.0001)     ;
(PID.TID 0000.0001) SEAICEdiffKhArea   = /* diffusivity (m^2/s) for area */
(PID.TID 0000.0001)                 4.000000000000000E+02
(PID.TID 0000.0001)     ;
(PID.TID 0000.0001) SEAICEdiffKhHeff   = /* diffusivity (m^2/s) for heff */
(PID.TID 0000.0001)                 4.000000000000000E+02
(PID.TID 0000.0001)     ;
(PID.TID 0000.0001) SEAICEdiffKhSnow   = /* diffusivity (m^2/s) for snow */
(PID.TID 0000.0001)                 4.000000000000000E+02
(PID.TID 0000.0001)     ;
(PID.TID 0000.0001) DIFF1             = /* parameter used in advect.F [m/s] */
(PID.TID 0000.0001)                 0.000000000000000E+00
(PID.TID 0000.0001)     ;
(PID.TID 0000.0001) 
(PID.TID 0000.0001)    Seaice thermodynamics configuration   > START <
(PID.TID 0000.0001)    -----------------------------------------------
(PID.TID 0000.0001) SEAICE_rhoIce     = /* density of sea ice (kg/m3) */
(PID.TID 0000.0001)                 9.100000000000000E+02
(PID.TID 0000.0001)     ;
(PID.TID 0000.0001) SEAICE_rhoSnow    = /* density of snow (kg/m3) */
(PID.TID 0000.0001)                 3.300000000000000E+02
(PID.TID 0000.0001)     ;
(PID.TID 0000.0001) SEAICE_rhoAir     = /* density of air (kg/m3) */
(PID.TID 0000.0001)                 1.200000000000000E+00
(PID.TID 0000.0001)     ;
(PID.TID 0000.0001) usePW79thermodynamics  = /* default 0-layer TD */
(PID.TID 0000.0001)                   T
(PID.TID 0000.0001)     ;
(PID.TID 0000.0001) SEAICE_lhEvap     = /* latent heat of evaporation */
(PID.TID 0000.0001)                 2.500000000000000E+06
(PID.TID 0000.0001)     ;
(PID.TID 0000.0001) SEAICE_lhFusion   = /* latent heat of fusion */
(PID.TID 0000.0001)                 3.340000000000000E+05
(PID.TID 0000.0001)     ;
(PID.TID 0000.0001) SEAICE_mcPheePiston = /* turbulent flux "piston velocity" a la McPhee (m/s) */
(PID.TID 0000.0001)                 3.858024691358025E-05
(PID.TID 0000.0001)     ;
(PID.TID 0000.0001) SEAICE_mcPheeTaper = /* tapering of turbulent flux (0.< <1.) for AREA=1. */
(PID.TID 0000.0001)                 0.000000000000000E+00
(PID.TID 0000.0001)     ;
(PID.TID 0000.0001) SEAICE_mcPheeStepFunc = /* replace linear tapering with step funct. */
(PID.TID 0000.0001)                   F
(PID.TID 0000.0001)     ;
(PID.TID 0000.0001) SEAICE_frazilFrac = /* frazil (T<tempFrz) to seaice conversion rate (0.< <1.) */
(PID.TID 0000.0001)                 1.000000000000000E+00
(PID.TID 0000.0001)     ;
(PID.TID 0000.0001) SEAICE_tempFrz0   = /* freezing temp. of sea water (intercept) */
(PID.TID 0000.0001)                -1.960000000000000E+00
(PID.TID 0000.0001)     ;
(PID.TID 0000.0001) SEAICE_dTempFrz_dS= /* freezing temp. of sea water (slope) */
(PID.TID 0000.0001)                 0.000000000000000E+00
(PID.TID 0000.0001)     ;
(PID.TID 0000.0001) SEAICE_growMeltByConv  = /* grow,melt by vert. conv. */
(PID.TID 0000.0001)                   F
(PID.TID 0000.0001)     ;
(PID.TID 0000.0001) SEAICE_doOpenWaterGrowth = /* grow by open water */
(PID.TID 0000.0001)                   T
(PID.TID 0000.0001)     ;
(PID.TID 0000.0001) SEAICE_doOpenWaterMelt = /* melt by open water */
(PID.TID 0000.0001)                   F
(PID.TID 0000.0001)     ;
(PID.TID 0000.0001) SEAICE_areaGainFormula = /* ice cover gain formula (1,2)*/
(PID.TID 0000.0001)                       1
(PID.TID 0000.0001)     1=from growth by ATM
(PID.TID 0000.0001)     2=from predicted growth by ATM
(PID.TID 0000.0001)     ;
(PID.TID 0000.0001) SEAICE_areaLossFormula = /* ice cover loss formula (1,2)*/
(PID.TID 0000.0001)                       2
(PID.TID 0000.0001)     1=from all but only melt conributions by ATM and OCN
(PID.TID 0000.0001)     2=from net melt-grow>0 by ATM and OCN
(PID.TID 0000.0001)     3=from predicted melt by ATM
(PID.TID 0000.0001)     ;
(PID.TID 0000.0001) HO                = /* nominal thickness of new ice */
(PID.TID 0000.0001)                 5.000000000000000E-01
(PID.TID 0000.0001)     ;
(PID.TID 0000.0001) HO_south               = /* Southern Ocean HO */
(PID.TID 0000.0001)                 5.000000000000000E-01
(PID.TID 0000.0001)     ;
(PID.TID 0000.0001) SEAICE_area_max        = /* set to les than 1. to mimic open leads */
(PID.TID 0000.0001)                 9.500000000000000E-01
(PID.TID 0000.0001)     ;
(PID.TID 0000.0001) SEAICE_salt0   = /* constant sea ice salinity */
(PID.TID 0000.0001)                 4.000000000000000E+00
(PID.TID 0000.0001)     ;
(PID.TID 0000.0001) SEAICE_salinityTracer = /* test SITR varia. salinity */
(PID.TID 0000.0001)                   F
(PID.TID 0000.0001)     ;
(PID.TID 0000.0001) SEAICEuseFlooding = /* turn submerged snow into ice */
(PID.TID 0000.0001)                   T
(PID.TID 0000.0001)     ;
(PID.TID 0000.0001) 
(PID.TID 0000.0001)    Seaice air-sea fluxes configuration,   > START <
(PID.TID 0000.0001)    -----------------------------------------------
(PID.TID 0000.0001) SEAICEheatConsFix  = /* accound for ocn<->seaice advect. heat flux */
(PID.TID 0000.0001)                   T
(PID.TID 0000.0001)     ;
(PID.TID 0000.0001) SEAICE_multDim    = /* number of ice categories (1 or 7) */
(PID.TID 0000.0001)                       1
(PID.TID 0000.0001)     ;
(PID.TID 0000.0001) SEAICE_PDF        = /* sea-ice distribution (-) */
(PID.TID 0000.0001)                 1.000000000000000E+00,      /* K =  1 */
(PID.TID 0000.0001)     6 @  0.000000000000000E+00              /* K =  2:  7 */
(PID.TID 0000.0001)     ;
(PID.TID 0000.0001) IMAX_TICE         = /* iterations for ice surface temp */
(PID.TID 0000.0001)                      10
(PID.TID 0000.0001)     ;
(PID.TID 0000.0001) postSolvTempIter= /* flux calculation after surf. temp iter */
(PID.TID 0000.0001)                       2
(PID.TID 0000.0001)     ;
(PID.TID 0000.0001) SEAICE_dryIceAlb  = /* winter albedo */
(PID.TID 0000.0001)                 8.400000000000000E-01
(PID.TID 0000.0001)     ;
(PID.TID 0000.0001) SEAICE_wetIceAlb  = /* summer albedo */
(PID.TID 0000.0001)                 7.800000000000000E-01
(PID.TID 0000.0001)     ;
(PID.TID 0000.0001) SEAICE_drySnowAlb = /* dry snow albedo */
(PID.TID 0000.0001)                 9.000000000000000E-01
(PID.TID 0000.0001)     ;
(PID.TID 0000.0001) SEAICE_wetSnowAlb = /* wet snow albedo */
(PID.TID 0000.0001)                 8.000000000000000E-01
(PID.TID 0000.0001)     ;
(PID.TID 0000.0001) SEAICE_dryIceAlb_south = /* Southern Ocean dryIceAlb */
(PID.TID 0000.0001)                 7.500000000000000E-01
(PID.TID 0000.0001)     ;
(PID.TID 0000.0001) SEAICE_wetIceAlb_south = /* Southern Ocean wetIceAlb */
(PID.TID 0000.0001)                 6.600000000000000E-01
(PID.TID 0000.0001)     ;
(PID.TID 0000.0001) SEAICE_drySnowAlb_south= /* Southern Ocean drySnowAlb */
(PID.TID 0000.0001)                 8.400000000000000E-01
(PID.TID 0000.0001)     ;
(PID.TID 0000.0001) SEAICE_wetSnowAlb_south= /* Southern Ocean wetSnowAlb */
(PID.TID 0000.0001)                 7.000000000000000E-01
(PID.TID 0000.0001)     ;
(PID.TID 0000.0001) SEAICE_wetAlbTemp= /* Temp (o.C) threshold for wet-albedo */
(PID.TID 0000.0001)                -1.000000000000000E-03
(PID.TID 0000.0001)     ;
(PID.TID 0000.0001) SEAICE_snow_emiss = /* snow emissivity */
(PID.TID 0000.0001)                 9.500000000000000E-01
(PID.TID 0000.0001)     ;
(PID.TID 0000.0001) SEAICE_ice_emiss = /* seaice emissivity */
(PID.TID 0000.0001)                 9.500000000000000E-01
(PID.TID 0000.0001)     ;
(PID.TID 0000.0001) SEAICE_cpAir      = /* heat capacity of air */
(PID.TID 0000.0001)                 1.005000000000000E+03
(PID.TID 0000.0001)     ;
(PID.TID 0000.0001) SEAICE_dalton     = /* constant dalton number */
(PID.TID 0000.0001)                 1.750000000000000E-03
(PID.TID 0000.0001)     ;
(PID.TID 0000.0001) SEAICE_iceConduct = /* sea-ice conductivity */
(PID.TID 0000.0001)                 2.165600000000000E+00
(PID.TID 0000.0001)     ;
(PID.TID 0000.0001) SEAICE_snowConduct= /* snow conductivity */
(PID.TID 0000.0001)                 3.100000000000000E-01
(PID.TID 0000.0001)     ;
(PID.TID 0000.0001) SEAICE_snowThick  = /* cutoff snow thickness (for albedo) */
(PID.TID 0000.0001)                 1.500000000000000E-01
(PID.TID 0000.0001)     ;
(PID.TID 0000.0001) SEAICE_shortwave  = /* penetration shortwave radiation */
(PID.TID 0000.0001)                 3.000000000000000E-01
(PID.TID 0000.0001)     ;
(PID.TID 0000.0001) useMaykutSatVapPoly = /* use Maykut Polynomial for Sat.Vap.Pr */
(PID.TID 0000.0001)                   F
(PID.TID 0000.0001)     ;
(PID.TID 0000.0001) MIN_ATEMP         = /* minimum air temperature */
(PID.TID 0000.0001)                -4.000000000000000E+01
(PID.TID 0000.0001)     ;
(PID.TID 0000.0001) MIN_LWDOWN        = /* minimum downward longwave */
(PID.TID 0000.0001)                 6.000000000000000E+01
(PID.TID 0000.0001)     ;
(PID.TID 0000.0001) MIN_TICE          = /* minimum ice temperature */
(PID.TID 0000.0001)                -4.000000000000000E+01
(PID.TID 0000.0001)     ;
(PID.TID 0000.0001) 
(PID.TID 0000.0001)    Seaice initialization and IO config.,   > START <
(PID.TID 0000.0001)    -------------------------------------------------
(PID.TID 0000.0001) SEAICE_initialHEFF= /* initial sea-ice thickness */
(PID.TID 0000.0001)                 0.000000000000000E+00
(PID.TID 0000.0001)     ;
(PID.TID 0000.0001) AreaFile = /* Initial ice concentration File */
(PID.TID 0000.0001)               'Area.0005184000'
(PID.TID 0000.0001)     ;
(PID.TID 0000.0001) HeffFile = /* Initial effective ice thickness File */
(PID.TID 0000.0001)               'Heff.0005184000'
(PID.TID 0000.0001)     ;
(PID.TID 0000.0001) HsnowFile = /* Initial snow thickness File */
(PID.TID 0000.0001)               ''
(PID.TID 0000.0001)     ;
(PID.TID 0000.0001) uIceFile = /* Initial U-ice velocity File */
(PID.TID 0000.0001)               ''
(PID.TID 0000.0001)     ;
(PID.TID 0000.0001) vIceFile = /* Initial V-ice velocity File */
(PID.TID 0000.0001)               ''
(PID.TID 0000.0001)     ;
(PID.TID 0000.0001) SEAICEwriteState  = /* write sea ice state to file */
(PID.TID 0000.0001)                   F
(PID.TID 0000.0001)     ;
(PID.TID 0000.0001) SEAICE_monFreq  = /* monitor frequency */
(PID.TID 0000.0001)                 1.000000000000000E+00
(PID.TID 0000.0001)     ;
(PID.TID 0000.0001) SEAICE_dumpFreq   = /* dump frequency */
(PID.TID 0000.0001)                 0.000000000000000E+00
(PID.TID 0000.0001)     ;
(PID.TID 0000.0001) SEAICE_taveFreq   = /* time-averaging frequency */
(PID.TID 0000.0001)                 0.000000000000000E+00
(PID.TID 0000.0001)     ;
(PID.TID 0000.0001) SEAICE_mon_stdio  = /* write monitor to std-outp */
(PID.TID 0000.0001)                   T
(PID.TID 0000.0001)     ;
(PID.TID 0000.0001) SEAICE_dump_mdsio = /* write snap-shot   using MDSIO */
(PID.TID 0000.0001)                   T
(PID.TID 0000.0001)     ;
(PID.TID 0000.0001) SEAICE_tave_mdsio = /* write TimeAverage using MDSIO */
(PID.TID 0000.0001)                   T
(PID.TID 0000.0001)     ;
(PID.TID 0000.0001) 
(PID.TID 0000.0001)    Seaice regularization numbers,   > START <
(PID.TID 0000.0001)    -----------------------------------------------
(PID.TID 0000.0001) SEAICE_deltaMin   = /* reduce singularities in Delta */
(PID.TID 0000.0001)                 1.000000000000000E-10
(PID.TID 0000.0001)     ;
(PID.TID 0000.0001) SEAICE_EPS        = /* small number */
(PID.TID 0000.0001)                 1.000000000000000E-10
(PID.TID 0000.0001)     ;
(PID.TID 0000.0001) SEAICE_EPS_SQ     = /* small number squared */
(PID.TID 0000.0001)                 1.000000000000000E-20
(PID.TID 0000.0001)     ;
(PID.TID 0000.0001) SEAICE_area_reg   = /* reduce derivative singularities */
(PID.TID 0000.0001)                 1.000000000000000E-05
(PID.TID 0000.0001)     ;
(PID.TID 0000.0001) SEAICE_hice_reg   = /* reduce derivative singularities */
(PID.TID 0000.0001)                 5.000000000000000E-02
(PID.TID 0000.0001)     ;
(PID.TID 0000.0001) SEAICE_area_floor = /* reduce derivative singularities */
(PID.TID 0000.0001)                 1.000000000000000E-05
(PID.TID 0000.0001)     ;
(PID.TID 0000.0001) 
(PID.TID 0000.0001) // =======================================================
(PID.TID 0000.0001) // Seaice configuration (SEAICE_PARM01) >>> END <<<
(PID.TID 0000.0001) // =======================================================
(PID.TID 0000.0001) 
(PID.TID 0000.0001) ------------------------------------------------------------
(PID.TID 0000.0001) DIAGNOSTICS_SET_LEVELS: done
(PID.TID 0000.0001)  Total Nb of available Diagnostics: ndiagt=   388
(PID.TID 0000.0001)  write list of available Diagnostics to file: available_diagnostics.log
(PID.TID 0000.0001) SETDIAG: Allocate  1 x  1 Levels for Diagnostic #    23 ETAN
(PID.TID 0000.0001) SETDIAG: Allocate  1 x  1 Levels for Diagnostic #    24 ETANSQ
(PID.TID 0000.0001) SETDIAG: Allocate  1 x  1 Levels for Diagnostic #    25 DETADT2
(PID.TID 0000.0001) SETDIAG: Allocate  1 x  1 Levels for Diagnostic #    73 PHIBOT
(PID.TID 0000.0001) SETDIAG: Allocate  1 x  1 Levels for Diagnostic #    74 PHIBOTSQ
(PID.TID 0000.0001) SETDIAG: Allocate  1 x  1 Levels for Diagnostic #   305 DICTFLX
(PID.TID 0000.0001) SETDIAG: Allocate  1 x  1 Levels for Diagnostic #   306 DICOFLX
(PID.TID 0000.0001) SETDIAG: Allocate  1 x  1 Levels for Diagnostic #   307 DICCFLX
(PID.TID 0000.0001) SETDIAG: Allocate  1 x  1 Levels for Diagnostic #   308 DICPCO2
(PID.TID 0000.0001) SETDIAG: Allocate  1 x  1 Levels for Diagnostic #   309 DICPHAV
(PID.TID 0000.0001)   space allocated for all diagnostics:      10 levels
(PID.TID 0000.0001) DIAGNOSTICS_SET_POINTERS: done
(PID.TID 0000.0001) ------------------------------------------------------------
(PID.TID 0000.0001) DIAGSTATS_SET_REGIONS: define no region
(PID.TID 0000.0001) ------------------------------------------------------------
(PID.TID 0000.0001)   space allocated for all stats-diags:       0 levels
(PID.TID 0000.0001) DIAGSTATS_SET_POINTERS: done
(PID.TID 0000.0001) ------------------------------------------------------------
(PID.TID 0000.0001) %MON fCori_max                    =   1.4579854531444E-04
(PID.TID 0000.0001) %MON fCori_min                    =  -1.4579854531444E-04
(PID.TID 0000.0001) %MON fCori_mean                   =   2.3039296165317E-19
(PID.TID 0000.0001) %MON fCori_sd                     =   1.0312619976228E-04
(PID.TID 0000.0001) %MON fCoriG_max                   =   1.4566679669714E-04
(PID.TID 0000.0001) %MON fCoriG_min                   =  -1.4584247033981E-04
(PID.TID 0000.0001) %MON fCoriG_mean                  =  -2.2787885990593E-06
(PID.TID 0000.0001) %MON fCoriG_sd                    =   1.0310101939326E-04
(PID.TID 0000.0001) %MON fCoriCos_max                 =   1.4579854531444E-04
(PID.TID 0000.0001) %MON fCoriCos_min                 =   3.5791533929553E-06
(PID.TID 0000.0001) %MON fCoriCos_mean                =   9.2855522572229E-05
(PID.TID 0000.0001) %MON fCoriCos_sd                  =   4.4864964117307E-05
(PID.TID 0000.0001) INI_CG2D: CG2D normalisation factor =  7.0372759228205380E-05
(PID.TID 0000.0001) 
(PID.TID 0000.0001) // =======================================================
(PID.TID 0000.0001) // Model configuration
(PID.TID 0000.0001) // =======================================================
(PID.TID 0000.0001) //
(PID.TID 0000.0001) // "Physical" paramters ( PARM01 in namelist )
(PID.TID 0000.0001) //
(PID.TID 0000.0001) buoyancyRelation = /* Type of relation to get Buoyancy */
(PID.TID 0000.0001)               'OCEANIC'
(PID.TID 0000.0001)     ;
(PID.TID 0000.0001) fluidIsAir   =  /* fluid major constituent is Air */
(PID.TID 0000.0001)                   F
(PID.TID 0000.0001)     ;
(PID.TID 0000.0001) fluidIsWater =  /* fluid major constituent is Water */
(PID.TID 0000.0001)                   T
(PID.TID 0000.0001)     ;
(PID.TID 0000.0001) usingPCoords =  /* use p (or p*) vertical coordinate */
(PID.TID 0000.0001)                   F
(PID.TID 0000.0001)     ;
(PID.TID 0000.0001) usingZCoords =  /* use z (or z*) vertical coordinate */
(PID.TID 0000.0001)                   T
(PID.TID 0000.0001)     ;
(PID.TID 0000.0001) tRef =   /* Reference temperature profile ( oC or K ) */
(PID.TID 0000.0001)    15 @  2.000000000000000E+01              /* K =  1: 15 */
(PID.TID 0000.0001)     ;
(PID.TID 0000.0001) sRef =   /* Reference salinity profile ( psu ) */
(PID.TID 0000.0001)    15 @  3.500000000000000E+01              /* K =  1: 15 */
(PID.TID 0000.0001)     ;
(PID.TID 0000.0001) useStrainTensionVisc= /* Use StrainTension Form of Viscous Operator */
(PID.TID 0000.0001)                   F
(PID.TID 0000.0001)     ;
(PID.TID 0000.0001) useVariableVisc = /* Use variable horizontal viscosity */
(PID.TID 0000.0001)                   F
(PID.TID 0000.0001)     ;
(PID.TID 0000.0001) useHarmonicVisc = /* Use harmonic horizontal viscosity */
(PID.TID 0000.0001)                   T
(PID.TID 0000.0001)     ;
(PID.TID 0000.0001) useBiharmonicVisc= /* Use biharmonic horiz.  viscosity */
(PID.TID 0000.0001)                   F
(PID.TID 0000.0001)     ;
(PID.TID 0000.0001) useSmag3D = /* Use isotropic 3-D Smagorinsky viscosity */
(PID.TID 0000.0001)                   F
(PID.TID 0000.0001)     ;
(PID.TID 0000.0001) viscAh  =   /* Lateral harmonic viscosity ( m^2/s ) */
(PID.TID 0000.0001)                 2.000000000000000E+05
(PID.TID 0000.0001)     ;
(PID.TID 0000.0001) viscA4  =   /* Lateral biharmonic viscosity ( m^4/s ) */
(PID.TID 0000.0001)                 0.000000000000000E+00
(PID.TID 0000.0001)     ;
(PID.TID 0000.0001) no_slip_sides =  /* Viscous BCs: No-slip sides */
(PID.TID 0000.0001)                   T
(PID.TID 0000.0001)     ;
(PID.TID 0000.0001) sideDragFactor = /* side-drag scaling factor (non-dim) */
(PID.TID 0000.0001)                 2.000000000000000E+00
(PID.TID 0000.0001)     ;
(PID.TID 0000.0001) viscArNr = /* vertical profile of vertical viscosity ( m^2/s )*/
(PID.TID 0000.0001)    15 @  1.000000000000000E-03              /* K =  1: 15 */
(PID.TID 0000.0001)     ;
(PID.TID 0000.0001) no_slip_bottom =  /* Viscous BCs: No-slip bottom */
(PID.TID 0000.0001)                   T
(PID.TID 0000.0001)     ;
(PID.TID 0000.0001) bottomVisc_pCell = /* Partial-cell in bottom Visc. BC */
(PID.TID 0000.0001)                   F
(PID.TID 0000.0001)     ;
(PID.TID 0000.0001) bottomDragLinear = /* linear bottom-drag coefficient ( m/s ) */
(PID.TID 0000.0001)                 0.000000000000000E+00
(PID.TID 0000.0001)     ;
(PID.TID 0000.0001) bottomDragQuadratic = /* quadratic bottom-drag coefficient (-) */
(PID.TID 0000.0001)                 0.000000000000000E+00
(PID.TID 0000.0001)     ;
(PID.TID 0000.0001) selectBotDragQuadr = /* select quadratic bottom drag options */
(PID.TID 0000.0001)                      -1
(PID.TID 0000.0001)     ;
(PID.TID 0000.0001) diffKhT =   /* Laplacian diffusion of heat laterally ( m^2/s ) */
(PID.TID 0000.0001)                 0.000000000000000E+00
(PID.TID 0000.0001)     ;
(PID.TID 0000.0001) diffK4T =   /* Biharmonic diffusion of heat laterally ( m^4/s ) */
(PID.TID 0000.0001)                 0.000000000000000E+00
(PID.TID 0000.0001)     ;
(PID.TID 0000.0001) diffKhS =   /* Laplacian diffusion of salt laterally ( m^2/s ) */
(PID.TID 0000.0001)                 0.000000000000000E+00
(PID.TID 0000.0001)     ;
(PID.TID 0000.0001) diffK4S =   /* Biharmonic diffusion of salt laterally ( m^4/s ) */
(PID.TID 0000.0001)                 0.000000000000000E+00
(PID.TID 0000.0001)     ;
(PID.TID 0000.0001) diffKrNrT = /* vertical profile of vertical diffusion of Temp ( m^2/s )*/
(PID.TID 0000.0001)    15 @  0.000000000000000E+00              /* K =  1: 15 */
(PID.TID 0000.0001)     ;
(PID.TID 0000.0001) diffKrNrS = /* vertical profile of vertical diffusion of Salt ( m^2/s )*/
(PID.TID 0000.0001)    15 @  0.000000000000000E+00              /* K =  1: 15 */
(PID.TID 0000.0001)     ;
(PID.TID 0000.0001) diffKrBL79surf = /* Surface diffusion for Bryan and Lewis 79 ( m^2/s ) */
(PID.TID 0000.0001)                 3.000000000000000E-05
(PID.TID 0000.0001)     ;
(PID.TID 0000.0001) diffKrBL79deep = /* Deep diffusion for Bryan and Lewis 1979 ( m^2/s ) */
(PID.TID 0000.0001)                 1.300000000000000E-04
(PID.TID 0000.0001)     ;
(PID.TID 0000.0001) diffKrBL79scl = /* Depth scale for Bryan and Lewis 1979 ( m ) */
(PID.TID 0000.0001)                 1.500000000000000E+02
(PID.TID 0000.0001)     ;
(PID.TID 0000.0001) diffKrBL79Ho = /* Turning depth for Bryan and Lewis 1979 ( m ) */
(PID.TID 0000.0001)                -2.000000000000000E+03
(PID.TID 0000.0001)     ;
(PID.TID 0000.0001) ivdc_kappa = /* Implicit Vertical Diffusivity for Convection ( m^2/s) */
(PID.TID 0000.0001)                 1.000000000000000E+02
(PID.TID 0000.0001)     ;
(PID.TID 0000.0001) hMixCriteria=  /* Criteria for mixed-layer diagnostic */
(PID.TID 0000.0001)                -8.000000000000000E-01
(PID.TID 0000.0001)     ;
(PID.TID 0000.0001) dRhoSmall =  /* Parameter for mixed-layer diagnostic */
(PID.TID 0000.0001)                 1.000000000000000E-06
(PID.TID 0000.0001)     ;
(PID.TID 0000.0001) hMixSmooth=  /* Smoothing parameter for mixed-layer diagnostic */
(PID.TID 0000.0001)                 0.000000000000000E+00
(PID.TID 0000.0001)     ;
(PID.TID 0000.0001) eosType =  /* Type of Equation of State */
(PID.TID 0000.0001)               'JMD95Z'
(PID.TID 0000.0001)     ;
(PID.TID 0000.0001) selectP_inEOS_Zc = /* select pressure to use in EOS (0,1,2,3) */
(PID.TID 0000.0001)                       0
(PID.TID 0000.0001)     0= -g*rhoConst*z ; 1= pRef (from tRef,sRef); 2= Hyd P ; 3= Hyd+NH P
(PID.TID 0000.0001)     ;
(PID.TID 0000.0001) HeatCapacity_Cp =  /* Specific heat capacity ( J/kg/K ) */
(PID.TID 0000.0001)                 3.994000000000000E+03
(PID.TID 0000.0001)     ;
(PID.TID 0000.0001) celsius2K = /* 0 degree Celsius converted to Kelvin ( K ) */
(PID.TID 0000.0001)                 2.731500000000000E+02
(PID.TID 0000.0001)     ;
(PID.TID 0000.0001) rhoConst  = /* Reference density (Boussinesq)  ( kg/m^3 ) */
(PID.TID 0000.0001)                 1.035000000000000E+03
(PID.TID 0000.0001)     ;
(PID.TID 0000.0001) rhoFacC = /* normalized Reference density @ cell-Center (-) */
(PID.TID 0000.0001)    15 @  1.000000000000000E+00              /* K =  1: 15 */
(PID.TID 0000.0001)     ;
(PID.TID 0000.0001) rhoFacF = /* normalized Reference density @ W-Interface (-) */
(PID.TID 0000.0001)    16 @  1.000000000000000E+00              /* K =  1: 16 */
(PID.TID 0000.0001)     ;
(PID.TID 0000.0001) rhoConstFresh = /* Fresh-water reference density ( kg/m^3 ) */
(PID.TID 0000.0001)                 1.000000000000000E+03
(PID.TID 0000.0001)     ;
(PID.TID 0000.0001) gravity =   /* Gravitational acceleration ( m/s^2 ) */
(PID.TID 0000.0001)                 9.810000000000000E+00
(PID.TID 0000.0001)     ;
(PID.TID 0000.0001) gBaro =   /* Barotropic gravity ( m/s^2 ) */
(PID.TID 0000.0001)                 9.810000000000000E+00
(PID.TID 0000.0001)     ;
(PID.TID 0000.0001) gravFacC = /* gravity factor (vs surf.) @ cell-Center (-) */
(PID.TID 0000.0001)    15 @  1.000000000000000E+00              /* K =  1: 15 */
(PID.TID 0000.0001)     ;
(PID.TID 0000.0001) gravFacF = /* gravity factor (vs surf.) @ W-Interface (-) */
(PID.TID 0000.0001)    16 @  1.000000000000000E+00              /* K =  1: 16 */
(PID.TID 0000.0001)     ;
(PID.TID 0000.0001) rotationPeriod =   /* Rotation Period ( s ) */
(PID.TID 0000.0001)                 8.616400000000000E+04
(PID.TID 0000.0001)     ;
(PID.TID 0000.0001) omega =   /* Angular velocity ( rad/s ) */
(PID.TID 0000.0001)                 7.292123516990375E-05
(PID.TID 0000.0001)     ;
(PID.TID 0000.0001) f0 =   /* Reference coriolis parameter ( 1/s ) */
(PID.TID 0000.0001)                 1.000000000000000E-04
(PID.TID 0000.0001)     ;
(PID.TID 0000.0001) beta =   /* Beta ( 1/(m.s) ) */
(PID.TID 0000.0001)                 9.999999999999999E-12
(PID.TID 0000.0001)     ;
(PID.TID 0000.0001) fPrime =   /* Second coriolis parameter ( 1/s ) */
(PID.TID 0000.0001)                 0.000000000000000E+00
(PID.TID 0000.0001)     ;
(PID.TID 0000.0001) rigidLid =   /* Rigid lid on/off flag */
(PID.TID 0000.0001)                   F
(PID.TID 0000.0001)     ;
(PID.TID 0000.0001) implicitFreeSurface =   /* Implicit free surface on/off flag */
(PID.TID 0000.0001)                   T
(PID.TID 0000.0001)     ;
(PID.TID 0000.0001) freeSurfFac =   /* Implicit free surface factor */
(PID.TID 0000.0001)                 1.000000000000000E+00
(PID.TID 0000.0001)     ;
(PID.TID 0000.0001) implicSurfPress =  /* Surface Pressure implicit factor (0-1)*/
(PID.TID 0000.0001)                 1.000000000000000E+00
(PID.TID 0000.0001)     ;
(PID.TID 0000.0001) implicDiv2DFlow =  /* Barot. Flow Div. implicit factor (0-1)*/
(PID.TID 0000.0001)                 1.000000000000000E+00
(PID.TID 0000.0001)     ;
(PID.TID 0000.0001) uniformLin_PhiSurf = /* use uniform Bo_surf on/off flag*/
(PID.TID 0000.0001)                   T
(PID.TID 0000.0001)     ;
(PID.TID 0000.0001) uniformFreeSurfLev = /* free-surface level-index is uniform */
(PID.TID 0000.0001)                   T
(PID.TID 0000.0001)     ;
(PID.TID 0000.0001) hFacMin =   /* minimum partial cell factor (hFac) */
(PID.TID 0000.0001)                 1.000000000000000E-01
(PID.TID 0000.0001)     ;
(PID.TID 0000.0001) hFacMinDr = /* minimum partial cell thickness ( m) */
(PID.TID 0000.0001)                 5.000000000000000E+01
(PID.TID 0000.0001)     ;
(PID.TID 0000.0001) exactConserv =  /* Exact Volume Conservation on/off flag*/
(PID.TID 0000.0001)                   F
(PID.TID 0000.0001)     ;
(PID.TID 0000.0001) linFSConserveTr = /* Tracer correction for Lin Free Surface on/off flag*/
(PID.TID 0000.0001)                   F
(PID.TID 0000.0001)     ;
(PID.TID 0000.0001) nonlinFreeSurf = /* Non-linear Free Surf. options (-1,0,1,2,3)*/
(PID.TID 0000.0001)                       0
(PID.TID 0000.0001)      -1,0= Off ; 1,2,3= On, 2=+rescale gU,gV, 3=+update cg2d solv.
(PID.TID 0000.0001)     ;
(PID.TID 0000.0001) hFacInf =   /* lower threshold for hFac (nonlinFreeSurf only)*/
(PID.TID 0000.0001)                 2.000000000000000E-01
(PID.TID 0000.0001)     ;
(PID.TID 0000.0001) hFacSup =   /* upper threshold for hFac (nonlinFreeSurf only)*/
(PID.TID 0000.0001)                 2.000000000000000E+00
(PID.TID 0000.0001)     ;
(PID.TID 0000.0001) select_rStar = /* r* Vertical coord. options (=0 r coord.; >0 uses r*)*/
(PID.TID 0000.0001)                       0
(PID.TID 0000.0001)     ;
(PID.TID 0000.0001) useRealFreshWaterFlux = /* Real Fresh Water Flux on/off flag*/
(PID.TID 0000.0001)                   F
(PID.TID 0000.0001)     ;
(PID.TID 0000.0001) temp_EvPrRn = /* Temp. of Evap/Prec/R (UNSET=use local T)(oC)*/
(PID.TID 0000.0001)                 1.234567000000000E+05
(PID.TID 0000.0001)     ;
(PID.TID 0000.0001) salt_EvPrRn = /* Salin. of Evap/Prec/R (UNSET=use local S)(psu)*/
(PID.TID 0000.0001)                 0.000000000000000E+00
(PID.TID 0000.0001)     ;
(PID.TID 0000.0001) selectAddFluid = /* option for mass source/sink of fluid (=0: off) */
(PID.TID 0000.0001)                       0
(PID.TID 0000.0001)     ;
(PID.TID 0000.0001) temp_addMass = /* Temp. of addMass array (UNSET=use local T)(oC)*/
(PID.TID 0000.0001)                 1.234567000000000E+05
(PID.TID 0000.0001)     ;
(PID.TID 0000.0001) salt_addMass = /* Salin. of addMass array (UNSET=use local S)(psu)*/
(PID.TID 0000.0001)                 0.000000000000000E+00
(PID.TID 0000.0001)     ;
(PID.TID 0000.0001) convertFW2Salt = /* convert F.W. Flux to Salt Flux (-1=use local S)(psu)*/
(PID.TID 0000.0001)                 3.500000000000000E+01
(PID.TID 0000.0001)     ;
(PID.TID 0000.0001) use3Dsolver = /* use 3-D pressure solver on/off flag */
(PID.TID 0000.0001)                   F
(PID.TID 0000.0001)     ;
(PID.TID 0000.0001) nonHydrostatic =  /* Non-Hydrostatic on/off flag */
(PID.TID 0000.0001)                   F
(PID.TID 0000.0001)     ;
(PID.TID 0000.0001) nh_Am2 = /* Non-Hydrostatic terms scaling factor */
(PID.TID 0000.0001)                 1.000000000000000E+00
(PID.TID 0000.0001)     ;
(PID.TID 0000.0001) implicitNHPress = /* Non-Hyd Pressure implicit factor (0-1)*/
(PID.TID 0000.0001)                 1.000000000000000E+00
(PID.TID 0000.0001)     ;
(PID.TID 0000.0001) selectNHfreeSurf = /* Non-Hyd (free-)Surface option */
(PID.TID 0000.0001)                       0
(PID.TID 0000.0001)     ;
(PID.TID 0000.0001) quasiHydrostatic = /* Quasi-Hydrostatic on/off flag */
(PID.TID 0000.0001)                   F
(PID.TID 0000.0001)     ;
(PID.TID 0000.0001) calc_wVelocity = /* vertical velocity calculation on/off flag */
(PID.TID 0000.0001)                   T
(PID.TID 0000.0001)     ;
(PID.TID 0000.0001) momStepping =  /* Momentum equation on/off flag */
(PID.TID 0000.0001)                   T
(PID.TID 0000.0001)     ;
(PID.TID 0000.0001) vectorInvariantMomentum= /* Vector-Invariant Momentum on/off */
(PID.TID 0000.0001)                   F
(PID.TID 0000.0001)     ;
(PID.TID 0000.0001) momAdvection =  /* Momentum advection on/off flag */
(PID.TID 0000.0001)                   T
(PID.TID 0000.0001)     ;
(PID.TID 0000.0001) momViscosity =  /* Momentum viscosity on/off flag */
(PID.TID 0000.0001)                   T
(PID.TID 0000.0001)     ;
(PID.TID 0000.0001) momImplVertAdv= /* Momentum implicit vert. advection on/off*/
(PID.TID 0000.0001)                   F
(PID.TID 0000.0001)     ;
(PID.TID 0000.0001) implicitViscosity = /* Implicit viscosity on/off flag */
(PID.TID 0000.0001)                   T
(PID.TID 0000.0001)     ;
(PID.TID 0000.0001) selectImplicitDrag= /* Implicit bot Drag options (0,1,2)*/
(PID.TID 0000.0001)                       0
(PID.TID 0000.0001)     0= Expl. ; 1= Impl. on provis. Vel ; 2= Fully Impl (with surf.P)
(PID.TID 0000.0001)     ;
(PID.TID 0000.0001) metricTerms =  /* metric-Terms on/off flag */
(PID.TID 0000.0001)                   T
(PID.TID 0000.0001)     ;
(PID.TID 0000.0001) useNHMTerms = /* Non-Hydrostatic Metric-Terms on/off */
(PID.TID 0000.0001)                   F
(PID.TID 0000.0001)     ;
(PID.TID 0000.0001) selectCoriMap = /* Coriolis Map options (0,1,2,3)*/
(PID.TID 0000.0001)                       2
(PID.TID 0000.0001)     0= f-Plane ; 1= Beta-Plane ; 2= Spherical ; 3= read from file
(PID.TID 0000.0001)     ;
(PID.TID 0000.0001) use3dCoriolis = /* 3-D Coriolis on/off flag */
(PID.TID 0000.0001)                   F
(PID.TID 0000.0001)     ;
(PID.TID 0000.0001) useCoriolis =  /* Coriolis on/off flag */
(PID.TID 0000.0001)                   T
(PID.TID 0000.0001)     ;
(PID.TID 0000.0001) useCDscheme =  /* CD scheme on/off flag */
(PID.TID 0000.0001)                   T
(PID.TID 0000.0001)     ;
(PID.TID 0000.0001) useEnergyConservingCoriolis= /* Flx-Form Coriolis scheme flag */
(PID.TID 0000.0001)                   F
(PID.TID 0000.0001)     ;
(PID.TID 0000.0001) useJamartWetPoints= /* Coriolis WetPoints method flag */
(PID.TID 0000.0001)                   F
(PID.TID 0000.0001)     ;
(PID.TID 0000.0001) useJamartMomAdv= /* V.I Non-linear terms Jamart flag */
(PID.TID 0000.0001)                   F
(PID.TID 0000.0001)     ;
(PID.TID 0000.0001) useAbsVorticity= /* V.I Works with f+zeta in Coriolis */
(PID.TID 0000.0001)                   F
(PID.TID 0000.0001)     ;
(PID.TID 0000.0001) selectVortScheme= /* V.I Scheme selector for Vorticity-Term */
(PID.TID 0000.0001)               123456789
(PID.TID 0000.0001)    = 0 : enstrophy (Shallow-Water Eq.) conserving scheme by Sadourny, JAS 75
(PID.TID 0000.0001)    = 1 : same as 0 with modified hFac
(PID.TID 0000.0001)    = 2 : energy conserving scheme (used by Sadourny in JAS 75 paper)
(PID.TID 0000.0001)    = 3 : energy (general) and enstrophy (2D, nonDiv.) conserving scheme
(PID.TID 0000.0001)          from Sadourny (Burridge & Haseler, ECMWF Rep.4, 1977)
(PID.TID 0000.0001)     ;
(PID.TID 0000.0001) upwindVorticity= /* V.I Upwind bias vorticity flag */
(PID.TID 0000.0001)                   F
(PID.TID 0000.0001)     ;
(PID.TID 0000.0001) highOrderVorticity= /* V.I High order vort. advect. flag */
(PID.TID 0000.0001)                   F
(PID.TID 0000.0001)     ;
(PID.TID 0000.0001) upwindShear= /* V.I Upwind vertical Shear advection flag */
(PID.TID 0000.0001)                   F
(PID.TID 0000.0001)     ;
(PID.TID 0000.0001) selectKEscheme= /* V.I Kinetic Energy scheme selector */
(PID.TID 0000.0001)                       0
(PID.TID 0000.0001)     ;
(PID.TID 0000.0001) momForcing =  /* Momentum forcing on/off flag */
(PID.TID 0000.0001)                   T
(PID.TID 0000.0001)     ;
(PID.TID 0000.0001) momTidalForcing = /* Momentum Tidal forcing on/off flag */
(PID.TID 0000.0001)                   T
(PID.TID 0000.0001)     ;
(PID.TID 0000.0001) momPressureForcing =  /* Momentum pressure term on/off flag */
(PID.TID 0000.0001)                   T
(PID.TID 0000.0001)     ;
(PID.TID 0000.0001) implicitIntGravWave= /* Implicit Internal Gravity Wave flag */
(PID.TID 0000.0001)                   F
(PID.TID 0000.0001)     ;
(PID.TID 0000.0001) staggerTimeStep =    /* Stagger time stepping on/off flag */
(PID.TID 0000.0001)                   F
(PID.TID 0000.0001)     ;
(PID.TID 0000.0001) doResetHFactors = /* reset thickness factors @ each time-step */
(PID.TID 0000.0001)                   F
(PID.TID 0000.0001)     ;
(PID.TID 0000.0001) multiDimAdvection =  /* enable/disable Multi-Dim Advection */
(PID.TID 0000.0001)                   T
(PID.TID 0000.0001)     ;
(PID.TID 0000.0001) useMultiDimAdvec =   /* Multi-Dim Advection is/is-not used */
(PID.TID 0000.0001)                   T
(PID.TID 0000.0001)     ;
(PID.TID 0000.0001) implicitDiffusion = /* Implicit Diffusion on/off flag */
(PID.TID 0000.0001)                   T
(PID.TID 0000.0001)     ;
(PID.TID 0000.0001) tempStepping =  /* Temperature equation on/off flag */
(PID.TID 0000.0001)                   T
(PID.TID 0000.0001)     ;
(PID.TID 0000.0001) tempAdvection = /* Temperature advection on/off flag */
(PID.TID 0000.0001)                   T
(PID.TID 0000.0001)     ;
(PID.TID 0000.0001) tempImplVertAdv = /* Temp. implicit vert. advection on/off */
(PID.TID 0000.0001)                   F
(PID.TID 0000.0001)     ;
(PID.TID 0000.0001) tempForcing  =  /* Temperature forcing on/off flag */
(PID.TID 0000.0001)                   T
(PID.TID 0000.0001)     ;
(PID.TID 0000.0001) balanceQnet  =  /* balance net heat-flux on/off flag */
(PID.TID 0000.0001)                   F
(PID.TID 0000.0001)     ;
(PID.TID 0000.0001) doThetaClimRelax = /* apply SST relaxation on/off flag */
(PID.TID 0000.0001)                   F
(PID.TID 0000.0001)     ;
(PID.TID 0000.0001) balanceThetaClimRelax= /* balance SST relaxation on/off flag */
(PID.TID 0000.0001)                   F
(PID.TID 0000.0001)     ;
(PID.TID 0000.0001) tempIsActiveTr = /* Temp. is a dynamically Active Tracer */
(PID.TID 0000.0001)                   T
(PID.TID 0000.0001)     ;
(PID.TID 0000.0001) saltStepping =  /* Salinity equation on/off flag */
(PID.TID 0000.0001)                   T
(PID.TID 0000.0001)     ;
(PID.TID 0000.0001) saltAdvection = /* Salinity advection on/off flag */
(PID.TID 0000.0001)                   T
(PID.TID 0000.0001)     ;
(PID.TID 0000.0001) saltImplVertAdv = /* Sali. implicit vert. advection on/off */
(PID.TID 0000.0001)                   F
(PID.TID 0000.0001)     ;
(PID.TID 0000.0001) saltForcing  =  /* Salinity forcing on/off flag */
(PID.TID 0000.0001)                   T
(PID.TID 0000.0001)     ;
(PID.TID 0000.0001) balanceEmPmR =  /* balance net fresh-water flux on/off flag */
(PID.TID 0000.0001)                   F
(PID.TID 0000.0001)     ;
(PID.TID 0000.0001) doSaltClimRelax = /* apply SSS relaxation on/off flag */
(PID.TID 0000.0001)                   F
(PID.TID 0000.0001)     ;
(PID.TID 0000.0001) balanceSaltClimRelax= /* balance SSS relaxation on/off flag */
(PID.TID 0000.0001)                   F
(PID.TID 0000.0001)     ;
(PID.TID 0000.0001) saltIsActiveTr = /* Salt  is a dynamically Active Tracer */
(PID.TID 0000.0001)                   T
(PID.TID 0000.0001)     ;
(PID.TID 0000.0001)  readBinaryPrec = /* Precision used for reading binary files */
(PID.TID 0000.0001)                      32
(PID.TID 0000.0001)     ;
(PID.TID 0000.0001) writeBinaryPrec = /* Precision used for writing binary files */
(PID.TID 0000.0001)                      32
(PID.TID 0000.0001)     ;
(PID.TID 0000.0001)  rwSuffixType =   /* select format of mds file suffix */
(PID.TID 0000.0001)                       0
(PID.TID 0000.0001)    = 0 : myIter (I10.10) ;   = 1 : 100*myTime (100th sec) ;
(PID.TID 0000.0001)    = 2 : myTime (seconds);   = 3 : myTime/360 (10th of hr);
(PID.TID 0000.0001)    = 4 : myTime/3600 (hours)
(PID.TID 0000.0001)     ;
(PID.TID 0000.0001)  globalFiles = /* write "global" (=not per tile) files */
(PID.TID 0000.0001)                   F
(PID.TID 0000.0001)     ;
(PID.TID 0000.0001)  useSingleCpuIO = /* only master MPI process does I/O */
(PID.TID 0000.0001)                   T
(PID.TID 0000.0001)     ;
(PID.TID 0000.0001)  useSingleCpuInput = /* only master process reads input */
(PID.TID 0000.0001)                   T
(PID.TID 0000.0001)     ;
(PID.TID 0000.0001) /* debLev[*]  : level of debug & auxiliary message printing */
(PID.TID 0000.0001) debLevZero =  0 ; /* level of disabled aux. msg printing */
(PID.TID 0000.0001)    debLevA =  1 ; /* level of minimum  aux. msg printing */
(PID.TID 0000.0001)    debLevB =  2 ; /* level of low aux. print (report read-file opening)*/
(PID.TID 0000.0001)    debLevC =  3 ; /* level of moderate debug prt (most pkgs debug msg) */
(PID.TID 0000.0001)    debLevD =  4 ; /* level of enhanced debug prt (add DEBUG_STATS prt) */
(PID.TID 0000.0001)    debLevE =  5 ; /* level of extensive debug printing */
(PID.TID 0000.0001) debugLevel =  /* select debug printing level */
(PID.TID 0000.0001)                       5
(PID.TID 0000.0001)     ;
(PID.TID 0000.0001)  plotLevel =  /* select PLOT_FIELD printing level */
(PID.TID 0000.0001)                       5
(PID.TID 0000.0001)     ;
(PID.TID 0000.0001) //
(PID.TID 0000.0001) // Elliptic solver(s) paramters ( PARM02 in namelist )
(PID.TID 0000.0001) //
(PID.TID 0000.0001) cg2dMaxIters =   /* Upper limit on 2d con. grad iterations  */
(PID.TID 0000.0001)                    1000
(PID.TID 0000.0001)     ;
(PID.TID 0000.0001) cg2dChkResFreq =   /* 2d con. grad convergence test frequency */
(PID.TID 0000.0001)                       1
(PID.TID 0000.0001)     ;
(PID.TID 0000.0001) cg2dUseMinResSol= /* use cg2d last-iter(=0) / min-resid.(=1) solution */
(PID.TID 0000.0001)                       0
(PID.TID 0000.0001)     ;
(PID.TID 0000.0001) cg2dTargetResidual =   /* 2d con. grad target residual  */
(PID.TID 0000.0001)                 1.000000000000000E-13
(PID.TID 0000.0001)     ;
(PID.TID 0000.0001) cg2dTargetResWunit =   /* CG2d target residual [W units] */
(PID.TID 0000.0001)                -1.000000000000000E+00
(PID.TID 0000.0001)     ;
(PID.TID 0000.0001) cg2dPreCondFreq =   /* Freq. for updating cg2d preconditioner */
(PID.TID 0000.0001)                       1
(PID.TID 0000.0001)     ;
(PID.TID 0000.0001) useSRCGSolver =  /* use single reduction CG solver(s) */
(PID.TID 0000.0001)                   F
(PID.TID 0000.0001)     ;
(PID.TID 0000.0001) printResidualFreq = /* Freq. for printing CG residual */
(PID.TID 0000.0001)                       1
(PID.TID 0000.0001)     ;
(PID.TID 0000.0001) //
(PID.TID 0000.0001) // Time stepping paramters ( PARM03 in namelist )
(PID.TID 0000.0001) //
(PID.TID 0000.0001) deltaTMom =   /* Momentum equation timestep ( s ) */
(PID.TID 0000.0001)                 9.000000000000000E+02
(PID.TID 0000.0001)     ;
(PID.TID 0000.0001) deltaTFreeSurf = /* FreeSurface equation timestep ( s ) */
(PID.TID 0000.0001)                 9.000000000000000E+02
(PID.TID 0000.0001)     ;
(PID.TID 0000.0001) dTtracerLev =  /* Tracer equation timestep ( s ) */
(PID.TID 0000.0001)    15 @  9.000000000000000E+02              /* K =  1: 15 */
(PID.TID 0000.0001)     ;
(PID.TID 0000.0001) deltaTClock  =   /* Model clock timestep ( s ) */
(PID.TID 0000.0001)                 9.000000000000000E+02
(PID.TID 0000.0001)     ;
(PID.TID 0000.0001) cAdjFreq =   /* Convective adjustment interval ( s ) */
(PID.TID 0000.0001)                 0.000000000000000E+00
(PID.TID 0000.0001)     ;
(PID.TID 0000.0001) momForcingOutAB = /* =1: take Momentum Forcing out of Adams-Bash. stepping */
(PID.TID 0000.0001)                       1
(PID.TID 0000.0001)     ;
(PID.TID 0000.0001) tracForcingOutAB = /* =1: take T,S,pTr Forcing out of Adams-Bash. stepping */
(PID.TID 0000.0001)                       1
(PID.TID 0000.0001)     ;
(PID.TID 0000.0001) momDissip_In_AB = /* put Dissipation Tendency in Adams-Bash. stepping */
(PID.TID 0000.0001)                   F
(PID.TID 0000.0001)     ;
(PID.TID 0000.0001) doAB_onGtGs = /* apply AB on Tendencies (rather than on T,S)*/
(PID.TID 0000.0001)                   T
(PID.TID 0000.0001)     ;
(PID.TID 0000.0001) abEps =   /* Adams-Bashforth-2 stabilizing weight */
(PID.TID 0000.0001)                 1.000000000000000E-02
(PID.TID 0000.0001)     ;
(PID.TID 0000.0001) alph_AB =   /* Adams-Bashforth-3 primary factor */
(PID.TID 0000.0001)                 5.000000000000000E-01
(PID.TID 0000.0001)     ;
(PID.TID 0000.0001) beta_AB =   /* Adams-Bashforth-3 secondary factor */
(PID.TID 0000.0001)                 4.166666666666667E-01
(PID.TID 0000.0001)     ;
(PID.TID 0000.0001) startFromPickupAB2= /* start from AB-2 pickup */
(PID.TID 0000.0001)                   F
(PID.TID 0000.0001)     ;
(PID.TID 0000.0001) applyExchUV_early = /* Apply EXCH to U,V earlier in time-step */
(PID.TID 0000.0001)                   F
(PID.TID 0000.0001)     ;
(PID.TID 0000.0001) tauCD =   /* CD coupling time-scale ( s ) */
(PID.TID 0000.0001)                 3.214280000000000E+05
(PID.TID 0000.0001)     ;
(PID.TID 0000.0001) rCD =   /* Normalised CD coupling parameter */
(PID.TID 0000.0001)                 9.971999950222133E-01
(PID.TID 0000.0001)     ;
(PID.TID 0000.0001) epsAB_CD = /* AB-2 stabilizing weight for CD-scheme*/
(PID.TID 0000.0001)                 1.000000000000000E-02
(PID.TID 0000.0001)     ;
(PID.TID 0000.0001) pickupStrictlyMatch= /* stop if pickup do not strictly match */
(PID.TID 0000.0001)                   T
(PID.TID 0000.0001)     ;
(PID.TID 0000.0001) nIter0   =   /* Run starting timestep number */
(PID.TID 0000.0001)                       0
(PID.TID 0000.0001)     ;
(PID.TID 0000.0001) nTimeSteps = /* Number of timesteps */
(PID.TID 0000.0001)                       4
(PID.TID 0000.0001)     ;
(PID.TID 0000.0001) nEndIter =   /* Run ending timestep number */
(PID.TID 0000.0001)                       4
(PID.TID 0000.0001)     ;
(PID.TID 0000.0001) baseTime =   /* Model base time ( s ) */
(PID.TID 0000.0001)                 0.000000000000000E+00
(PID.TID 0000.0001)     ;
(PID.TID 0000.0001) startTime =  /* Run start time ( s ) */
(PID.TID 0000.0001)                 0.000000000000000E+00
(PID.TID 0000.0001)     ;
(PID.TID 0000.0001) endTime  =   /* Integration ending time ( s ) */
(PID.TID 0000.0001)                 3.600000000000000E+03
(PID.TID 0000.0001)     ;
(PID.TID 0000.0001) pChkPtFreq = /* Permanent restart/pickup file interval ( s ) */
(PID.TID 0000.0001)                 2.160000000000000E+05
(PID.TID 0000.0001)     ;
(PID.TID 0000.0001) chkPtFreq  = /* Rolling restart/pickup file interval ( s ) */
(PID.TID 0000.0001)                 0.000000000000000E+00
(PID.TID 0000.0001)     ;
(PID.TID 0000.0001) pickup_write_mdsio =   /* Model IO flag. */
(PID.TID 0000.0001)                   T
(PID.TID 0000.0001)     ;
(PID.TID 0000.0001) pickup_read_mdsio =   /* Model IO flag. */
(PID.TID 0000.0001)                   T
(PID.TID 0000.0001)     ;
(PID.TID 0000.0001) writePickupAtEnd =   /* Model IO flag. */
(PID.TID 0000.0001)                   T
(PID.TID 0000.0001)     ;
(PID.TID 0000.0001) dumpFreq =   /* Model state write out interval ( s ). */
(PID.TID 0000.0001)                 0.000000000000000E+00
(PID.TID 0000.0001)     ;
(PID.TID 0000.0001) dumpInitAndLast= /* write out Initial & Last iter. model state */
(PID.TID 0000.0001)                   T
(PID.TID 0000.0001)     ;
(PID.TID 0000.0001) snapshot_mdsio =   /* Model IO flag. */
(PID.TID 0000.0001)                   T
(PID.TID 0000.0001)     ;
(PID.TID 0000.0001) monitorFreq =   /* Monitor output interval ( s ). */
(PID.TID 0000.0001)                 1.000000000000000E+00
(PID.TID 0000.0001)     ;
(PID.TID 0000.0001) monitorSelect = /* select group of variables to monitor */
(PID.TID 0000.0001)                       3
(PID.TID 0000.0001)     ;
(PID.TID 0000.0001) monitor_stdio =   /* Model IO flag. */
(PID.TID 0000.0001)                   T
(PID.TID 0000.0001)     ;
(PID.TID 0000.0001) externForcingPeriod =   /* forcing period (s) */
(PID.TID 0000.0001)                 2.592000000000000E+06
(PID.TID 0000.0001)     ;
(PID.TID 0000.0001) externForcingCycle =   /* period of the cyle (s). */
(PID.TID 0000.0001)                 3.110400000000000E+07
(PID.TID 0000.0001)     ;
(PID.TID 0000.0001) tauThetaClimRelax =   /* relaxation time scale (s) */
(PID.TID 0000.0001)                 0.000000000000000E+00
(PID.TID 0000.0001)     ;
(PID.TID 0000.0001) tauSaltClimRelax =   /* relaxation time scale (s) */
(PID.TID 0000.0001)                 0.000000000000000E+00
(PID.TID 0000.0001)     ;
(PID.TID 0000.0001) latBandClimRelax =   /* max. Lat. where relaxation */
(PID.TID 0000.0001)                 1.800000000000000E+02
(PID.TID 0000.0001)     ;
(PID.TID 0000.0001) //
(PID.TID 0000.0001) // Gridding paramters ( PARM04 in namelist )
(PID.TID 0000.0001) //
(PID.TID 0000.0001) usingCartesianGrid = /* Cartesian coordinates flag ( True/False ) */
(PID.TID 0000.0001)                   F
(PID.TID 0000.0001)     ;
(PID.TID 0000.0001) usingCylindricalGrid = /* Cylindrical coordinates flag ( True/False ) */
(PID.TID 0000.0001)                   F
(PID.TID 0000.0001)     ;
(PID.TID 0000.0001) usingSphericalPolarGrid = /* Spherical coordinates flag ( True/False ) */
(PID.TID 0000.0001)                   T
(PID.TID 0000.0001)     ;
(PID.TID 0000.0001) usingCurvilinearGrid = /* Curvilinear coordinates flag ( True/False ) */
(PID.TID 0000.0001)                   F
(PID.TID 0000.0001)     ;
(PID.TID 0000.0001) useMin4hFacEdges = /* set hFacW,S as minimum of adjacent hFacC factor */
(PID.TID 0000.0001)                   F
(PID.TID 0000.0001)     ;
(PID.TID 0000.0001) interViscAr_pCell = /* account for partial-cell in interior vert. viscosity */
(PID.TID 0000.0001)                   F
(PID.TID 0000.0001)     ;
(PID.TID 0000.0001) interDiffKr_pCell = /* account for partial-cell in interior vert. diffusion */
(PID.TID 0000.0001)                   F
(PID.TID 0000.0001)     ;
(PID.TID 0000.0001) pCellMix_select = /* option to enhance mixing near surface & bottom */
(PID.TID 0000.0001)                       0
(PID.TID 0000.0001)     ;
(PID.TID 0000.0001) selectSigmaCoord = /* Hybrid-Sigma Vert. Coordinate option */
(PID.TID 0000.0001)                       0
(PID.TID 0000.0001)     ;
(PID.TID 0000.0001) rSigmaBnd = /* r/sigma transition ( units of r ==  m ) */
(PID.TID 0000.0001)                 1.234567000000000E+05
(PID.TID 0000.0001)     ;
(PID.TID 0000.0001) rkSign =   /* index orientation relative to vertical coordinate */
(PID.TID 0000.0001)                -1.000000000000000E+00
(PID.TID 0000.0001)     ;
(PID.TID 0000.0001) gravitySign = /* gravity orientation relative to vertical coordinate */
(PID.TID 0000.0001)                -1.000000000000000E+00
(PID.TID 0000.0001)     ;
(PID.TID 0000.0001) seaLev_Z =  /* reference height of sea-level [m] */
(PID.TID 0000.0001)                 0.000000000000000E+00
(PID.TID 0000.0001)     ;
(PID.TID 0000.0001) top_Pres =  /* reference pressure at the top [Pa] */
(PID.TID 0000.0001)                 0.000000000000000E+00
(PID.TID 0000.0001)     ;
(PID.TID 0000.0001) mass2rUnit = /* convert mass per unit area [kg/m2] to r-units [m] */
(PID.TID 0000.0001)                 9.661835748792270E-04
(PID.TID 0000.0001)     ;
(PID.TID 0000.0001) rUnit2mass = /* convert r-units [m] to mass per unit area [kg/m2] */
(PID.TID 0000.0001)                 1.035000000000000E+03
(PID.TID 0000.0001)     ;
(PID.TID 0000.0001) drC =   /* C spacing ( units of r ) */
(PID.TID 0000.0001)                 2.500000000000000E+01,      /* K =  1 */
(PID.TID 0000.0001)                 6.000000000000000E+01,      /* K =  2 */
(PID.TID 0000.0001)                 8.500000000000000E+01,      /* K =  3 */
(PID.TID 0000.0001)                 1.200000000000000E+02,      /* K =  4 */
(PID.TID 0000.0001)                 1.650000000000000E+02,      /* K =  5 */
(PID.TID 0000.0001)                 2.150000000000000E+02,      /* K =  6 */
(PID.TID 0000.0001)                 2.650000000000000E+02,      /* K =  7 */
(PID.TID 0000.0001)                 3.150000000000000E+02,      /* K =  8 */
(PID.TID 0000.0001)                 3.650000000000000E+02,      /* K =  9 */
(PID.TID 0000.0001)                 4.150000000000000E+02,      /* K = 10 */
(PID.TID 0000.0001)                 4.650000000000000E+02,      /* K = 11 */
(PID.TID 0000.0001)                 5.150000000000000E+02,      /* K = 12 */
(PID.TID 0000.0001)                 5.650000000000000E+02,      /* K = 13 */
(PID.TID 0000.0001)                 6.150000000000000E+02,      /* K = 14 */
(PID.TID 0000.0001)                 6.650000000000000E+02,      /* K = 15 */
(PID.TID 0000.0001)                 3.450000000000000E+02       /* K = 16 */
(PID.TID 0000.0001)     ;
(PID.TID 0000.0001) drF =   /* W spacing ( units of r ) */
(PID.TID 0000.0001)                 5.000000000000000E+01,      /* K =  1 */
(PID.TID 0000.0001)                 7.000000000000000E+01,      /* K =  2 */
(PID.TID 0000.0001)                 1.000000000000000E+02,      /* K =  3 */
(PID.TID 0000.0001)                 1.400000000000000E+02,      /* K =  4 */
(PID.TID 0000.0001)                 1.900000000000000E+02,      /* K =  5 */
(PID.TID 0000.0001)                 2.400000000000000E+02,      /* K =  6 */
(PID.TID 0000.0001)                 2.900000000000000E+02,      /* K =  7 */
(PID.TID 0000.0001)                 3.400000000000000E+02,      /* K =  8 */
(PID.TID 0000.0001)                 3.900000000000000E+02,      /* K =  9 */
(PID.TID 0000.0001)                 4.400000000000000E+02,      /* K = 10 */
(PID.TID 0000.0001)                 4.900000000000000E+02,      /* K = 11 */
(PID.TID 0000.0001)                 5.400000000000000E+02,      /* K = 12 */
(PID.TID 0000.0001)                 5.900000000000000E+02,      /* K = 13 */
(PID.TID 0000.0001)                 6.400000000000000E+02,      /* K = 14 */
(PID.TID 0000.0001)                 6.900000000000000E+02       /* K = 15 */
(PID.TID 0000.0001)     ;
(PID.TID 0000.0001) delX = /* U spacing ( m - cartesian, degrees - spherical ) */
(PID.TID 0000.0001)   128 @  2.812500000000000E+00              /* I =  1:128 */
(PID.TID 0000.0001)     ;
(PID.TID 0000.0001) delY = /* V spacing ( m - cartesian, degrees - spherical ) */
(PID.TID 0000.0001)    64 @  2.812500000000000E+00              /* J =  1: 64 */
(PID.TID 0000.0001)     ;
(PID.TID 0000.0001) xgOrigin = /* X-axis origin of West  edge (cartesian: m, lat-lon: deg) */
(PID.TID 0000.0001)                 0.000000000000000E+00
(PID.TID 0000.0001)     ;
(PID.TID 0000.0001) ygOrigin = /* Y-axis origin of South edge (cartesian: m, lat-lon: deg) */
(PID.TID 0000.0001)                -9.000000000000000E+01
(PID.TID 0000.0001)     ;
(PID.TID 0000.0001) rSphere =  /* Radius ( ignored - cartesian, m - spherical ) */
(PID.TID 0000.0001)                 6.370000000000000E+06
(PID.TID 0000.0001)     ;
(PID.TID 0000.0001) deepAtmosphere = /* Deep/Shallow Atmosphere flag (True/False) */
(PID.TID 0000.0001)                   F
(PID.TID 0000.0001)     ;
(PID.TID 0000.0001) xC =  /* xC(:,1,:,1) : P-point X coord ( deg. or m if cartesian) */
(PID.TID 0000.0001)                 1.406250000000000E+00,      /* I =  1 */
(PID.TID 0000.0001)                 4.218750000000000E+00,      /* I =  2 */
(PID.TID 0000.0001)                 7.031250000000000E+00,      /* I =  3 */
(PID.TID 0000.0001)      . . .
(PID.TID 0000.0001)                 8.296875000000000E+01,      /* I = 30 */
(PID.TID 0000.0001)                 8.578125000000000E+01,      /* I = 31 */
(PID.TID 0000.0001)                 8.859375000000000E+01,      /* I = 32 */
(PID.TID 0000.0001)                 9.140625000000000E+01,      /* I = 33 */
(PID.TID 0000.0001)                 9.421875000000000E+01,      /* I = 34 */
(PID.TID 0000.0001)                 9.703125000000000E+01,      /* I = 35 */
(PID.TID 0000.0001)      . . .
(PID.TID 0000.0001)                 1.729687500000000E+02,      /* I = 62 */
(PID.TID 0000.0001)                 1.757812500000000E+02,      /* I = 63 */
(PID.TID 0000.0001)                 1.785937500000000E+02,      /* I = 64 */
(PID.TID 0000.0001)                 1.814062500000000E+02,      /* I = 65 */
(PID.TID 0000.0001)                 1.842187500000000E+02,      /* I = 66 */
(PID.TID 0000.0001)                 1.870312500000000E+02,      /* I = 67 */
(PID.TID 0000.0001)      . . .
(PID.TID 0000.0001)                 2.629687500000000E+02,      /* I = 94 */
(PID.TID 0000.0001)                 2.657812500000000E+02,      /* I = 95 */
(PID.TID 0000.0001)                 2.685937500000000E+02,      /* I = 96 */
(PID.TID 0000.0001)                 2.714062500000000E+02,      /* I = 97 */
(PID.TID 0000.0001)                 2.742187500000000E+02,      /* I = 98 */
(PID.TID 0000.0001)                 2.770312500000000E+02,      /* I = 99 */
(PID.TID 0000.0001)      . . .
(PID.TID 0000.0001)                 3.529687500000000E+02,      /* I =126 */
(PID.TID 0000.0001)                 3.557812500000000E+02,      /* I =127 */
(PID.TID 0000.0001)                 3.585937500000000E+02       /* I =128 */
(PID.TID 0000.0001)     ;
(PID.TID 0000.0001) yC =  /* yC(1,:,1,:) : P-point Y coord ( deg. or m if cartesian) */
(PID.TID 0000.0001)                -8.859375000000000E+01,      /* J =  1 */
(PID.TID 0000.0001)                -8.578125000000000E+01,      /* J =  2 */
(PID.TID 0000.0001)                -8.296875000000000E+01,      /* J =  3 */
(PID.TID 0000.0001)                -8.015625000000000E+01,      /* J =  4 */
(PID.TID 0000.0001)                -7.734375000000000E+01,      /* J =  5 */
(PID.TID 0000.0001)                -7.453125000000000E+01,      /* J =  6 */
(PID.TID 0000.0001)                -7.171875000000000E+01,      /* J =  7 */
(PID.TID 0000.0001)                -6.890625000000000E+01,      /* J =  8 */
(PID.TID 0000.0001)                -6.609375000000000E+01,      /* J =  9 */
(PID.TID 0000.0001)                -6.328125000000000E+01,      /* J = 10 */
(PID.TID 0000.0001)                -6.046875000000000E+01,      /* J = 11 */
(PID.TID 0000.0001)                -5.765625000000000E+01,      /* J = 12 */
(PID.TID 0000.0001)                -5.484375000000000E+01,      /* J = 13 */
(PID.TID 0000.0001)                -5.203125000000000E+01,      /* J = 14 */
(PID.TID 0000.0001)                -4.921875000000000E+01,      /* J = 15 */
(PID.TID 0000.0001)                -4.640625000000000E+01,      /* J = 16 */
(PID.TID 0000.0001)                -4.359375000000000E+01,      /* J = 17 */
(PID.TID 0000.0001)                -4.078125000000000E+01,      /* J = 18 */
(PID.TID 0000.0001)                -3.796875000000000E+01,      /* J = 19 */
(PID.TID 0000.0001)                -3.515625000000000E+01,      /* J = 20 */
(PID.TID 0000.0001)                -3.234375000000000E+01,      /* J = 21 */
(PID.TID 0000.0001)                -2.953125000000000E+01,      /* J = 22 */
(PID.TID 0000.0001)                -2.671875000000000E+01,      /* J = 23 */
(PID.TID 0000.0001)                -2.390625000000000E+01,      /* J = 24 */
(PID.TID 0000.0001)                -2.109375000000000E+01,      /* J = 25 */
(PID.TID 0000.0001)                -1.828125000000000E+01,      /* J = 26 */
(PID.TID 0000.0001)                -1.546875000000000E+01,      /* J = 27 */
(PID.TID 0000.0001)                -1.265625000000000E+01,      /* J = 28 */
(PID.TID 0000.0001)                -9.843750000000000E+00,      /* J = 29 */
(PID.TID 0000.0001)                -7.031250000000000E+00,      /* J = 30 */
(PID.TID 0000.0001)                -4.218750000000000E+00,      /* J = 31 */
(PID.TID 0000.0001)                -1.406250000000000E+00,      /* J = 32 */
(PID.TID 0000.0001)                 1.406250000000000E+00,      /* J = 33 */
(PID.TID 0000.0001)                 4.218750000000000E+00,      /* J = 34 */
(PID.TID 0000.0001)                 7.031250000000000E+00,      /* J = 35 */
(PID.TID 0000.0001)                 9.843750000000000E+00,      /* J = 36 */
(PID.TID 0000.0001)                 1.265625000000000E+01,      /* J = 37 */
(PID.TID 0000.0001)                 1.546875000000000E+01,      /* J = 38 */
(PID.TID 0000.0001)                 1.828125000000000E+01,      /* J = 39 */
(PID.TID 0000.0001)                 2.109375000000000E+01,      /* J = 40 */
(PID.TID 0000.0001)                 2.390625000000000E+01,      /* J = 41 */
(PID.TID 0000.0001)                 2.671875000000000E+01,      /* J = 42 */
(PID.TID 0000.0001)                 2.953125000000000E+01,      /* J = 43 */
(PID.TID 0000.0001)                 3.234375000000000E+01,      /* J = 44 */
(PID.TID 0000.0001)                 3.515625000000000E+01,      /* J = 45 */
(PID.TID 0000.0001)                 3.796875000000000E+01,      /* J = 46 */
(PID.TID 0000.0001)                 4.078125000000000E+01,      /* J = 47 */
(PID.TID 0000.0001)                 4.359375000000000E+01,      /* J = 48 */
(PID.TID 0000.0001)                 4.640625000000000E+01,      /* J = 49 */
(PID.TID 0000.0001)                 4.921875000000000E+01,      /* J = 50 */
(PID.TID 0000.0001)                 5.203125000000000E+01,      /* J = 51 */
(PID.TID 0000.0001)                 5.484375000000000E+01,      /* J = 52 */
(PID.TID 0000.0001)                 5.765625000000000E+01,      /* J = 53 */
(PID.TID 0000.0001)                 6.046875000000000E+01,      /* J = 54 */
(PID.TID 0000.0001)                 6.328125000000000E+01,      /* J = 55 */
(PID.TID 0000.0001)                 6.609375000000000E+01,      /* J = 56 */
(PID.TID 0000.0001)                 6.890625000000000E+01,      /* J = 57 */
(PID.TID 0000.0001)                 7.171875000000000E+01,      /* J = 58 */
(PID.TID 0000.0001)                 7.453125000000000E+01,      /* J = 59 */
(PID.TID 0000.0001)                 7.734375000000000E+01,      /* J = 60 */
(PID.TID 0000.0001)                 8.015625000000000E+01,      /* J = 61 */
(PID.TID 0000.0001)                 8.296875000000000E+01,      /* J = 62 */
(PID.TID 0000.0001)                 8.578125000000000E+01,      /* J = 63 */
(PID.TID 0000.0001)                 8.859375000000000E+01       /* J = 64 */
(PID.TID 0000.0001)     ;
(PID.TID 0000.0001) rcoord = /* P-point R coordinate (  units of r ) */
(PID.TID 0000.0001)                -2.500000000000000E+01,      /* K =  1 */
(PID.TID 0000.0001)                -8.500000000000000E+01,      /* K =  2 */
(PID.TID 0000.0001)                -1.700000000000000E+02,      /* K =  3 */
(PID.TID 0000.0001)                -2.900000000000000E+02,      /* K =  4 */
(PID.TID 0000.0001)                -4.550000000000000E+02,      /* K =  5 */
(PID.TID 0000.0001)                -6.700000000000000E+02,      /* K =  6 */
(PID.TID 0000.0001)                -9.350000000000000E+02,      /* K =  7 */
(PID.TID 0000.0001)                -1.250000000000000E+03,      /* K =  8 */
(PID.TID 0000.0001)                -1.615000000000000E+03,      /* K =  9 */
(PID.TID 0000.0001)                -2.030000000000000E+03,      /* K = 10 */
(PID.TID 0000.0001)                -2.495000000000000E+03,      /* K = 11 */
(PID.TID 0000.0001)                -3.010000000000000E+03,      /* K = 12 */
(PID.TID 0000.0001)                -3.575000000000000E+03,      /* K = 13 */
(PID.TID 0000.0001)                -4.190000000000000E+03,      /* K = 14 */
(PID.TID 0000.0001)                -4.855000000000000E+03       /* K = 15 */
(PID.TID 0000.0001)     ;
(PID.TID 0000.0001) rF =   /* W-Interf. R coordinate (  units of r ) */
(PID.TID 0000.0001)                 0.000000000000000E+00,      /* K =  1 */
(PID.TID 0000.0001)                -5.000000000000000E+01,      /* K =  2 */
(PID.TID 0000.0001)                -1.200000000000000E+02,      /* K =  3 */
(PID.TID 0000.0001)                -2.200000000000000E+02,      /* K =  4 */
(PID.TID 0000.0001)                -3.600000000000000E+02,      /* K =  5 */
(PID.TID 0000.0001)                -5.500000000000000E+02,      /* K =  6 */
(PID.TID 0000.0001)                -7.900000000000000E+02,      /* K =  7 */
(PID.TID 0000.0001)                -1.080000000000000E+03,      /* K =  8 */
(PID.TID 0000.0001)                -1.420000000000000E+03,      /* K =  9 */
(PID.TID 0000.0001)                -1.810000000000000E+03,      /* K = 10 */
(PID.TID 0000.0001)                -2.250000000000000E+03,      /* K = 11 */
(PID.TID 0000.0001)                -2.740000000000000E+03,      /* K = 12 */
(PID.TID 0000.0001)                -3.280000000000000E+03,      /* K = 13 */
(PID.TID 0000.0001)                -3.870000000000000E+03,      /* K = 14 */
(PID.TID 0000.0001)                -4.510000000000000E+03,      /* K = 15 */
(PID.TID 0000.0001)                -5.200000000000000E+03       /* K = 16 */
(PID.TID 0000.0001)     ;
(PID.TID 0000.0001) deepFacC = /* deep-model grid factor @ cell-Center (-) */
(PID.TID 0000.0001)    15 @  1.000000000000000E+00              /* K =  1: 15 */
(PID.TID 0000.0001)     ;
(PID.TID 0000.0001) deepFacF = /* deep-model grid factor @ W-Interface (-) */
(PID.TID 0000.0001)    16 @  1.000000000000000E+00              /* K =  1: 16 */
(PID.TID 0000.0001)     ;
(PID.TID 0000.0001) rVel2wUnit = /* convert units: rVel -> wSpeed (=1 if z-coord)*/
(PID.TID 0000.0001)    16 @  1.000000000000000E+00              /* K =  1: 16 */
(PID.TID 0000.0001)     ;
(PID.TID 0000.0001) wUnit2rVel = /* convert units: wSpeed -> rVel (=1 if z-coord)*/
(PID.TID 0000.0001)    16 @  1.000000000000000E+00              /* K =  1: 16 */
(PID.TID 0000.0001)     ;
(PID.TID 0000.0001) dBdrRef = /* Vertical grad. of reference buoyancy [(m/s/r)^2] */
(PID.TID 0000.0001)    15 @  0.000000000000000E+00              /* K =  1: 15 */
(PID.TID 0000.0001)     ;
(PID.TID 0000.0001) rotateGrid = /* use rotated grid ( True/False ) */
(PID.TID 0000.0001)                   F
(PID.TID 0000.0001)     ;
(PID.TID 0000.0001) phiEuler = /* Euler angle, rotation about original z-coordinate [rad] */
(PID.TID 0000.0001)                 0.000000000000000E+00
(PID.TID 0000.0001)     ;
(PID.TID 0000.0001) thetaEuler = /* Euler angle, rotation about new x-coordinate [rad] */
(PID.TID 0000.0001)                 0.000000000000000E+00
(PID.TID 0000.0001)     ;
(PID.TID 0000.0001) psiEuler = /* Euler angle, rotation about new z-coordinate [rad] */
(PID.TID 0000.0001)                 0.000000000000000E+00
(PID.TID 0000.0001)     ;
(PID.TID 0000.0001) dxF =  /* dxF(:,1,:,1) ( units: m ) */
(PID.TID 0000.0001)   128 @  7.673714381622299E+03              /* I =  1:128 */
(PID.TID 0000.0001)     ;
(PID.TID 0000.0001) dxF =  /* dxF(1,:,1,:) ( units: m ) */
(PID.TID 0000.0001)                 7.673714381622299E+03,      /* J =  1 */
(PID.TID 0000.0001)                 2.300265649478360E+04,      /* J =  2 */
(PID.TID 0000.0001)                 3.827618319365421E+04,      /* J =  3 */
(PID.TID 0000.0001)                 5.345749921461356E+04,      /* J =  4 */
(PID.TID 0000.0001)                 6.851003143764105E+04,      /* J =  5 */
(PID.TID 0000.0001)                 8.339751699416524E+04,      /* J =  6 */
(PID.TID 0000.0001)                 9.808409062749069E+04,      /* J =  7 */
(PID.TID 0000.0001)                 1.125343710953429E+05,      /* J =  8 */
(PID.TID 0000.0001)                 1.267135464063795E+05,      /* J =  9 */
(PID.TID 0000.0001)                 1.405874576853274E+05,      /* J = 10 */
(PID.TID 0000.0001)                 1.541226814647045E+05,      /* J = 11 */
(PID.TID 0000.0001)                 1.672866102048805E+05,      /* J = 12 */
(PID.TID 0000.0001)                 1.800475308484964E+05,      /* J = 13 */
(PID.TID 0000.0001)                 1.923747012199971E+05,      /* J = 14 */
(PID.TID 0000.0001)                 2.042384240862252E+05,      /* J = 15 */
(PID.TID 0000.0001)                 2.156101186996563E+05,      /* J = 16 */
(PID.TID 0000.0001)                 2.264623896519241E+05,      /* J = 17 */
(PID.TID 0000.0001)                 2.367690928717577E+05,      /* J = 18 */
(PID.TID 0000.0001)                 2.465053986083400E+05,      /* J = 19 */
(PID.TID 0000.0001)                 2.556478512483520E+05,      /* J = 20 */
(PID.TID 0000.0001)                 2.641744258225996E+05,      /* J = 21 */
(PID.TID 0000.0001)                 2.720645810660936E+05,      /* J = 22 */
(PID.TID 0000.0001)                 2.792993089037565E+05,      /* J = 23 */
(PID.TID 0000.0001)                 2.858611802425402E+05,      /* J = 24 */
(PID.TID 0000.0001)                 2.917343869596373E+05,      /* J = 25 */
(PID.TID 0000.0001)                 2.969047799856344E+05,      /* J = 26 */
(PID.TID 0000.0001)                 3.013599033908587E+05,      /* J = 27 */
(PID.TID 0000.0001)                 3.050890243928043E+05,      /* J = 28 */
(PID.TID 0000.0001)                 3.080831592123453E+05,      /* J = 29 */
(PID.TID 0000.0001)                 3.103350947164461E+05,      /* J = 30 */
(PID.TID 0000.0001)                 3.118394057952309E+05,      /* J = 31 */
(PID.TID 0000.0001)     2 @  3.125924684315491E+05,             /* J = 32: 33 */
(PID.TID 0000.0001)                 3.118394057952309E+05,      /* J = 34 */
(PID.TID 0000.0001)                 3.103350947164461E+05,      /* J = 35 */
(PID.TID 0000.0001)                 3.080831592123453E+05,      /* J = 36 */
(PID.TID 0000.0001)                 3.050890243928043E+05,      /* J = 37 */
(PID.TID 0000.0001)                 3.013599033908587E+05,      /* J = 38 */
(PID.TID 0000.0001)                 2.969047799856344E+05,      /* J = 39 */
(PID.TID 0000.0001)                 2.917343869596373E+05,      /* J = 40 */
(PID.TID 0000.0001)                 2.858611802425402E+05,      /* J = 41 */
(PID.TID 0000.0001)                 2.792993089037565E+05,      /* J = 42 */
(PID.TID 0000.0001)                 2.720645810660936E+05,      /* J = 43 */
(PID.TID 0000.0001)                 2.641744258225996E+05,      /* J = 44 */
(PID.TID 0000.0001)                 2.556478512483520E+05,      /* J = 45 */
(PID.TID 0000.0001)                 2.465053986083400E+05,      /* J = 46 */
(PID.TID 0000.0001)                 2.367690928717577E+05,      /* J = 47 */
(PID.TID 0000.0001)                 2.264623896519241E+05,      /* J = 48 */
(PID.TID 0000.0001)                 2.156101186996563E+05,      /* J = 49 */
(PID.TID 0000.0001)                 2.042384240862252E+05,      /* J = 50 */
(PID.TID 0000.0001)                 1.923747012199971E+05,      /* J = 51 */
(PID.TID 0000.0001)                 1.800475308484964E+05,      /* J = 52 */
(PID.TID 0000.0001)                 1.672866102048805E+05,      /* J = 53 */
(PID.TID 0000.0001)                 1.541226814647045E+05,      /* J = 54 */
(PID.TID 0000.0001)                 1.405874576853274E+05,      /* J = 55 */
(PID.TID 0000.0001)                 1.267135464063795E+05,      /* J = 56 */
(PID.TID 0000.0001)                 1.125343710953429E+05,      /* J = 57 */
(PID.TID 0000.0001)                 9.808409062749069E+04,      /* J = 58 */
(PID.TID 0000.0001)                 8.339751699416524E+04,      /* J = 59 */
(PID.TID 0000.0001)                 6.851003143764105E+04,      /* J = 60 */
(PID.TID 0000.0001)                 5.345749921461356E+04,      /* J = 61 */
(PID.TID 0000.0001)                 3.827618319365421E+04,      /* J = 62 */
(PID.TID 0000.0001)                 2.300265649478360E+04,      /* J = 63 */
(PID.TID 0000.0001)                 7.673714381622299E+03       /* J = 64 */
(PID.TID 0000.0001)     ;
(PID.TID 0000.0001) dyF =  /* dyF(:,1,:,1) ( units: m ) */
(PID.TID 0000.0001)   128 @  3.126866438026091E+05              /* I =  1:128 */
(PID.TID 0000.0001)     ;
(PID.TID 0000.0001) dyF =  /* dyF(1,:,1,:) ( units: m ) */
(PID.TID 0000.0001)    64 @  3.126866438026091E+05              /* J =  1: 64 */
(PID.TID 0000.0001)     ;
(PID.TID 0000.0001) dxG =  /* dxG(:,1,:,1) ( units: m ) */
(PID.TID 0000.0001)   128 @  0.000000000000000E+00              /* I =  1:128 */
(PID.TID 0000.0001)     ;
(PID.TID 0000.0001) dxG =  /* dxG(1,:,1,:) ( units: m ) */
(PID.TID 0000.0001)                 0.000000000000000E+00,      /* J =  1 */
(PID.TID 0000.0001)                 1.534280640463982E+04,      /* J =  2 */
(PID.TID 0000.0001)                 3.064865064477965E+04,      /* J =  3 */
(PID.TID 0000.0001)                 4.588065960101153E+04,      /* J =  4 */
(PID.TID 0000.0001)                 6.100213802959342E+04,      /* J =  5 */
(PID.TID 0000.0001)                 7.597665696450579E+04,      /* J =  6 */
(PID.TID 0000.0001)                 9.076814147802138E+04,      /* J =  7 */
(PID.TID 0000.0001)                 1.053409575883663E+05,      /* J =  8 */
(PID.TID 0000.0001)                 1.196599981051027E+05,      /* J =  9 */
(PID.TID 0000.0001)                 1.336907672054259E+05,      /* J = 10 */
(PID.TID 0000.0001)                 1.473994635376230E+05,      /* J = 11 */
(PID.TID 0000.0001)                 1.607530616514898E+05,      /* J = 12 */
(PID.TID 0000.0001)                 1.737193915595329E+05,      /* J = 13 */
(PID.TID 0000.0001)                 1.862672162372875E+05,      /* J = 14 */
(PID.TID 0000.0001)                 1.983663068760452E+05,      /* J = 15 */
(PID.TID 0000.0001)                 2.099875157067021E+05,      /* J = 16 */
(PID.TID 0000.0001)                 2.211028462192875E+05,      /* J = 17 */
(PID.TID 0000.0001)                 2.316855206090084E+05,      /* J = 18 */
(PID.TID 0000.0001)                 2.417100442863276E+05,      /* J = 19 */
(PID.TID 0000.0001)                 2.511522672956614E+05,      /* J = 20 */
(PID.TID 0000.0001)                 2.599894424947394E+05,      /* J = 21 */
(PID.TID 0000.0001)                 2.682002803544621E+05,      /* J = 22 */
(PID.TID 0000.0001)                 2.757650002472408E+05,      /* J = 23 */
(PID.TID 0000.0001)                 2.826653781002625E+05,      /* J = 24 */
(PID.TID 0000.0001)                 2.888847902988777E+05,      /* J = 25 */
(PID.TID 0000.0001)                 2.944082537343438E+05,      /* J = 26 */
(PID.TID 0000.0001)                 2.992224618994463E+05,      /* J = 27 */
(PID.TID 0000.0001)                 3.033158169450409E+05,      /* J = 28 */
(PID.TID 0000.0001)                 3.066784576202870E+05,      /* J = 29 */
(PID.TID 0000.0001)                 3.093022830292655E+05,      /* J = 30 */
(PID.TID 0000.0001)                 3.111809721467461E+05,      /* J = 31 */
(PID.TID 0000.0001)                 3.123099990460912E+05,      /* J = 32 */
(PID.TID 0000.0001)                 3.126866438026091E+05,      /* J = 33 */
(PID.TID 0000.0001)                 3.123099990460912E+05,      /* J = 34 */
(PID.TID 0000.0001)                 3.111809721467461E+05,      /* J = 35 */
(PID.TID 0000.0001)                 3.093022830292655E+05,      /* J = 36 */
(PID.TID 0000.0001)                 3.066784576202870E+05,      /* J = 37 */
(PID.TID 0000.0001)                 3.033158169450409E+05,      /* J = 38 */
(PID.TID 0000.0001)                 2.992224618994463E+05,      /* J = 39 */
(PID.TID 0000.0001)                 2.944082537343438E+05,      /* J = 40 */
(PID.TID 0000.0001)                 2.888847902988777E+05,      /* J = 41 */
(PID.TID 0000.0001)                 2.826653781002625E+05,      /* J = 42 */
(PID.TID 0000.0001)                 2.757650002472408E+05,      /* J = 43 */
(PID.TID 0000.0001)                 2.682002803544621E+05,      /* J = 44 */
(PID.TID 0000.0001)                 2.599894424947394E+05,      /* J = 45 */
(PID.TID 0000.0001)                 2.511522672956614E+05,      /* J = 46 */
(PID.TID 0000.0001)                 2.417100442863276E+05,      /* J = 47 */
(PID.TID 0000.0001)                 2.316855206090084E+05,      /* J = 48 */
(PID.TID 0000.0001)                 2.211028462192875E+05,      /* J = 49 */
(PID.TID 0000.0001)                 2.099875157067021E+05,      /* J = 50 */
(PID.TID 0000.0001)                 1.983663068760452E+05,      /* J = 51 */
(PID.TID 0000.0001)                 1.862672162372875E+05,      /* J = 52 */
(PID.TID 0000.0001)                 1.737193915595329E+05,      /* J = 53 */
(PID.TID 0000.0001)                 1.607530616514898E+05,      /* J = 54 */
(PID.TID 0000.0001)                 1.473994635376230E+05,      /* J = 55 */
(PID.TID 0000.0001)                 1.336907672054259E+05,      /* J = 56 */
(PID.TID 0000.0001)                 1.196599981051027E+05,      /* J = 57 */
(PID.TID 0000.0001)                 1.053409575883663E+05,      /* J = 58 */
(PID.TID 0000.0001)                 9.076814147802138E+04,      /* J = 59 */
(PID.TID 0000.0001)                 7.597665696450579E+04,      /* J = 60 */
(PID.TID 0000.0001)                 6.100213802959342E+04,      /* J = 61 */
(PID.TID 0000.0001)                 4.588065960101153E+04,      /* J = 62 */
(PID.TID 0000.0001)                 3.064865064477965E+04,      /* J = 63 */
(PID.TID 0000.0001)                 1.534280640463982E+04       /* J = 64 */
(PID.TID 0000.0001)     ;
(PID.TID 0000.0001) dyG =  /* dyG(:,1,:,1) ( units: m ) */
(PID.TID 0000.0001)   128 @  3.126866438026091E+05              /* I =  1:128 */
(PID.TID 0000.0001)     ;
(PID.TID 0000.0001) dyG =  /* dyG(1,:,1,:) ( units: m ) */
(PID.TID 0000.0001)    64 @  3.126866438026091E+05              /* J =  1: 64 */
(PID.TID 0000.0001)     ;
(PID.TID 0000.0001) dxC =  /* dxC(:,1,:,1) ( units: m ) */
(PID.TID 0000.0001)   128 @  7.673714381622299E+03              /* I =  1:128 */
(PID.TID 0000.0001)     ;
(PID.TID 0000.0001) dxC =  /* dxC(1,:,1,:) ( units: m ) */
(PID.TID 0000.0001)                 7.673714381622299E+03,      /* J =  1 */
(PID.TID 0000.0001)                 2.300265649478360E+04,      /* J =  2 */
(PID.TID 0000.0001)                 3.827618319365421E+04,      /* J =  3 */
(PID.TID 0000.0001)                 5.345749921461356E+04,      /* J =  4 */
(PID.TID 0000.0001)                 6.851003143764105E+04,      /* J =  5 */
(PID.TID 0000.0001)                 8.339751699416524E+04,      /* J =  6 */
(PID.TID 0000.0001)                 9.808409062749069E+04,      /* J =  7 */
(PID.TID 0000.0001)                 1.125343710953429E+05,      /* J =  8 */
(PID.TID 0000.0001)                 1.267135464063795E+05,      /* J =  9 */
(PID.TID 0000.0001)                 1.405874576853274E+05,      /* J = 10 */
(PID.TID 0000.0001)                 1.541226814647045E+05,      /* J = 11 */
(PID.TID 0000.0001)                 1.672866102048805E+05,      /* J = 12 */
(PID.TID 0000.0001)                 1.800475308484964E+05,      /* J = 13 */
(PID.TID 0000.0001)                 1.923747012199971E+05,      /* J = 14 */
(PID.TID 0000.0001)                 2.042384240862252E+05,      /* J = 15 */
(PID.TID 0000.0001)                 2.156101186996563E+05,      /* J = 16 */
(PID.TID 0000.0001)                 2.264623896519241E+05,      /* J = 17 */
(PID.TID 0000.0001)                 2.367690928717577E+05,      /* J = 18 */
(PID.TID 0000.0001)                 2.465053986083400E+05,      /* J = 19 */
(PID.TID 0000.0001)                 2.556478512483520E+05,      /* J = 20 */
(PID.TID 0000.0001)                 2.641744258225996E+05,      /* J = 21 */
(PID.TID 0000.0001)                 2.720645810660936E+05,      /* J = 22 */
(PID.TID 0000.0001)                 2.792993089037565E+05,      /* J = 23 */
(PID.TID 0000.0001)                 2.858611802425402E+05,      /* J = 24 */
(PID.TID 0000.0001)                 2.917343869596373E+05,      /* J = 25 */
(PID.TID 0000.0001)                 2.969047799856344E+05,      /* J = 26 */
(PID.TID 0000.0001)                 3.013599033908587E+05,      /* J = 27 */
(PID.TID 0000.0001)                 3.050890243928043E+05,      /* J = 28 */
(PID.TID 0000.0001)                 3.080831592123453E+05,      /* J = 29 */
(PID.TID 0000.0001)                 3.103350947164461E+05,      /* J = 30 */
(PID.TID 0000.0001)                 3.118394057952309E+05,      /* J = 31 */
(PID.TID 0000.0001)     2 @  3.125924684315491E+05,             /* J = 32: 33 */
(PID.TID 0000.0001)                 3.118394057952309E+05,      /* J = 34 */
(PID.TID 0000.0001)                 3.103350947164461E+05,      /* J = 35 */
(PID.TID 0000.0001)                 3.080831592123453E+05,      /* J = 36 */
(PID.TID 0000.0001)                 3.050890243928043E+05,      /* J = 37 */
(PID.TID 0000.0001)                 3.013599033908587E+05,      /* J = 38 */
(PID.TID 0000.0001)                 2.969047799856344E+05,      /* J = 39 */
(PID.TID 0000.0001)                 2.917343869596373E+05,      /* J = 40 */
(PID.TID 0000.0001)                 2.858611802425402E+05,      /* J = 41 */
(PID.TID 0000.0001)                 2.792993089037565E+05,      /* J = 42 */
(PID.TID 0000.0001)                 2.720645810660936E+05,      /* J = 43 */
(PID.TID 0000.0001)                 2.641744258225996E+05,      /* J = 44 */
(PID.TID 0000.0001)                 2.556478512483520E+05,      /* J = 45 */
(PID.TID 0000.0001)                 2.465053986083400E+05,      /* J = 46 */
(PID.TID 0000.0001)                 2.367690928717577E+05,      /* J = 47 */
(PID.TID 0000.0001)                 2.264623896519241E+05,      /* J = 48 */
(PID.TID 0000.0001)                 2.156101186996563E+05,      /* J = 49 */
(PID.TID 0000.0001)                 2.042384240862252E+05,      /* J = 50 */
(PID.TID 0000.0001)                 1.923747012199971E+05,      /* J = 51 */
(PID.TID 0000.0001)                 1.800475308484964E+05,      /* J = 52 */
(PID.TID 0000.0001)                 1.672866102048805E+05,      /* J = 53 */
(PID.TID 0000.0001)                 1.541226814647045E+05,      /* J = 54 */
(PID.TID 0000.0001)                 1.405874576853274E+05,      /* J = 55 */
(PID.TID 0000.0001)                 1.267135464063795E+05,      /* J = 56 */
(PID.TID 0000.0001)                 1.125343710953429E+05,      /* J = 57 */
(PID.TID 0000.0001)                 9.808409062749069E+04,      /* J = 58 */
(PID.TID 0000.0001)                 8.339751699416524E+04,      /* J = 59 */
(PID.TID 0000.0001)                 6.851003143764105E+04,      /* J = 60 */
(PID.TID 0000.0001)                 5.345749921461356E+04,      /* J = 61 */
(PID.TID 0000.0001)                 3.827618319365421E+04,      /* J = 62 */
(PID.TID 0000.0001)                 2.300265649478360E+04,      /* J = 63 */
(PID.TID 0000.0001)                 7.673714381622299E+03       /* J = 64 */
(PID.TID 0000.0001)     ;
(PID.TID 0000.0001) dyC =  /* dyC(:,1,:,1) ( units: m ) */
(PID.TID 0000.0001)   128 @  3.126866438026091E+05              /* I =  1:128 */
(PID.TID 0000.0001)     ;
(PID.TID 0000.0001) dyC =  /* dyC(1,:,1,:) ( units: m ) */
(PID.TID 0000.0001)    64 @  3.126866438026091E+05              /* J =  1: 64 */
(PID.TID 0000.0001)     ;
(PID.TID 0000.0001) dxV =  /* dxV(:,1,:,1) ( units: m ) */
(PID.TID 0000.0001)   128 @  0.000000000000000E+00              /* I =  1:128 */
(PID.TID 0000.0001)     ;
(PID.TID 0000.0001) dxV =  /* dxV(1,:,1,:) ( units: m ) */
(PID.TID 0000.0001)                 0.000000000000000E+00,      /* J =  1 */
(PID.TID 0000.0001)                 1.534280640463982E+04,      /* J =  2 */
(PID.TID 0000.0001)                 3.064865064477965E+04,      /* J =  3 */
(PID.TID 0000.0001)                 4.588065960101153E+04,      /* J =  4 */
(PID.TID 0000.0001)                 6.100213802959342E+04,      /* J =  5 */
(PID.TID 0000.0001)                 7.597665696450579E+04,      /* J =  6 */
(PID.TID 0000.0001)                 9.076814147802138E+04,      /* J =  7 */
(PID.TID 0000.0001)                 1.053409575883663E+05,      /* J =  8 */
(PID.TID 0000.0001)                 1.196599981051027E+05,      /* J =  9 */
(PID.TID 0000.0001)                 1.336907672054259E+05,      /* J = 10 */
(PID.TID 0000.0001)                 1.473994635376230E+05,      /* J = 11 */
(PID.TID 0000.0001)                 1.607530616514898E+05,      /* J = 12 */
(PID.TID 0000.0001)                 1.737193915595329E+05,      /* J = 13 */
(PID.TID 0000.0001)                 1.862672162372875E+05,      /* J = 14 */
(PID.TID 0000.0001)                 1.983663068760452E+05,      /* J = 15 */
(PID.TID 0000.0001)                 2.099875157067021E+05,      /* J = 16 */
(PID.TID 0000.0001)                 2.211028462192875E+05,      /* J = 17 */
(PID.TID 0000.0001)                 2.316855206090084E+05,      /* J = 18 */
(PID.TID 0000.0001)                 2.417100442863276E+05,      /* J = 19 */
(PID.TID 0000.0001)                 2.511522672956614E+05,      /* J = 20 */
(PID.TID 0000.0001)                 2.599894424947394E+05,      /* J = 21 */
(PID.TID 0000.0001)                 2.682002803544621E+05,      /* J = 22 */
(PID.TID 0000.0001)                 2.757650002472408E+05,      /* J = 23 */
(PID.TID 0000.0001)                 2.826653781002625E+05,      /* J = 24 */
(PID.TID 0000.0001)                 2.888847902988777E+05,      /* J = 25 */
(PID.TID 0000.0001)                 2.944082537343438E+05,      /* J = 26 */
(PID.TID 0000.0001)                 2.992224618994463E+05,      /* J = 27 */
(PID.TID 0000.0001)                 3.033158169450409E+05,      /* J = 28 */
(PID.TID 0000.0001)                 3.066784576202870E+05,      /* J = 29 */
(PID.TID 0000.0001)                 3.093022830292655E+05,      /* J = 30 */
(PID.TID 0000.0001)                 3.111809721467461E+05,      /* J = 31 */
(PID.TID 0000.0001)                 3.123099990460912E+05,      /* J = 32 */
(PID.TID 0000.0001)                 3.126866438026091E+05,      /* J = 33 */
(PID.TID 0000.0001)                 3.123099990460912E+05,      /* J = 34 */
(PID.TID 0000.0001)                 3.111809721467461E+05,      /* J = 35 */
(PID.TID 0000.0001)                 3.093022830292655E+05,      /* J = 36 */
(PID.TID 0000.0001)                 3.066784576202870E+05,      /* J = 37 */
(PID.TID 0000.0001)                 3.033158169450409E+05,      /* J = 38 */
(PID.TID 0000.0001)                 2.992224618994463E+05,      /* J = 39 */
(PID.TID 0000.0001)                 2.944082537343438E+05,      /* J = 40 */
(PID.TID 0000.0001)                 2.888847902988777E+05,      /* J = 41 */
(PID.TID 0000.0001)                 2.826653781002625E+05,      /* J = 42 */
(PID.TID 0000.0001)                 2.757650002472408E+05,      /* J = 43 */
(PID.TID 0000.0001)                 2.682002803544621E+05,      /* J = 44 */
(PID.TID 0000.0001)                 2.599894424947394E+05,      /* J = 45 */
(PID.TID 0000.0001)                 2.511522672956614E+05,      /* J = 46 */
(PID.TID 0000.0001)                 2.417100442863276E+05,      /* J = 47 */
(PID.TID 0000.0001)                 2.316855206090084E+05,      /* J = 48 */
(PID.TID 0000.0001)                 2.211028462192875E+05,      /* J = 49 */
(PID.TID 0000.0001)                 2.099875157067021E+05,      /* J = 50 */
(PID.TID 0000.0001)                 1.983663068760452E+05,      /* J = 51 */
(PID.TID 0000.0001)                 1.862672162372875E+05,      /* J = 52 */
(PID.TID 0000.0001)                 1.737193915595329E+05,      /* J = 53 */
(PID.TID 0000.0001)                 1.607530616514898E+05,      /* J = 54 */
(PID.TID 0000.0001)                 1.473994635376230E+05,      /* J = 55 */
(PID.TID 0000.0001)                 1.336907672054259E+05,      /* J = 56 */
(PID.TID 0000.0001)                 1.196599981051027E+05,      /* J = 57 */
(PID.TID 0000.0001)                 1.053409575883663E+05,      /* J = 58 */
(PID.TID 0000.0001)                 9.076814147802138E+04,      /* J = 59 */
(PID.TID 0000.0001)                 7.597665696450579E+04,      /* J = 60 */
(PID.TID 0000.0001)                 6.100213802959342E+04,      /* J = 61 */
(PID.TID 0000.0001)                 4.588065960101153E+04,      /* J = 62 */
(PID.TID 0000.0001)                 3.064865064477965E+04,      /* J = 63 */
(PID.TID 0000.0001)                 1.534280640463982E+04       /* J = 64 */
(PID.TID 0000.0001)     ;
(PID.TID 0000.0001) dyU =  /* dyU(:,1,:,1) ( units: m ) */
(PID.TID 0000.0001)   128 @  3.126866438026091E+05              /* I =  1:128 */
(PID.TID 0000.0001)     ;
(PID.TID 0000.0001) dyU =  /* dyU(1,:,1,:) ( units: m ) */
(PID.TID 0000.0001)    64 @  3.126866438026091E+05              /* J =  1: 64 */
(PID.TID 0000.0001)     ;
(PID.TID 0000.0001) rA  =  /* rA (:,1,:,1) ( units: m^2 ) */
(PID.TID 0000.0001)   128 @  2.399227099019018E+09              /* I =  1:128 */
(PID.TID 0000.0001)     ;
(PID.TID 0000.0001) rA  =  /* rA (1,:,1,:) ( units: m^2 ) */
(PID.TID 0000.0001)                 2.399227099019018E+09,      /* J =  1 */
(PID.TID 0000.0001)                 7.191901348828056E+09,      /* J =  2 */
(PID.TID 0000.0001)                 1.196724967835171E+10,      /* J =  3 */
(PID.TID 0000.0001)                 1.671376785519299E+10,      /* J =  4 */
(PID.TID 0000.0001)                 2.142002110131771E+10,      /* J =  5 */
(PID.TID 0000.0001)                 2.607467164043704E+10,      /* J =  6 */
(PID.TID 0000.0001)                 3.066650601170349E+10,      /* J =  7 */
(PID.TID 0000.0001)                 3.518446208391881E+10,      /* J =  8 */
(PID.TID 0000.0001)                 3.961765570517892E+10,      /* J =  9 */
(PID.TID 0000.0001)                 4.395540692374860E+10,      /* J = 10 */
(PID.TID 0000.0001)                 4.818726571700000E+10,      /* J = 11 */
(PID.TID 0000.0001)                 5.230303716643355E+10,      /* J = 12 */
(PID.TID 0000.0001)                 5.629280601812719E+10,      /* J = 13 */
(PID.TID 0000.0001)                 6.014696056945681E+10,      /* J = 14 */
(PID.TID 0000.0001)                 6.385621582452237E+10,      /* J = 15 */
(PID.TID 0000.0001)                 6.741163586252281E+10,      /* J = 16 */
(PID.TID 0000.0001)                 7.080465536516846E+10,      /* J = 17 */
(PID.TID 0000.0001)                 7.402710025128452E+10,      /* J = 18 */
(PID.TID 0000.0001)                 7.707120736888658E+10,      /* J = 19 */
(PID.TID 0000.0001)                 7.992964319729683E+10,      /* J = 20 */
(PID.TID 0000.0001)                 8.259552151423444E+10,      /* J = 21 */
(PID.TID 0000.0001)                 8.506241998533159E+10,      /* J = 22 */
(PID.TID 0000.0001)                 8.732439563609566E+10,      /* J = 23 */
(PID.TID 0000.0001)                 8.937599916905872E+10,      /* J = 24 */
(PID.TID 0000.0001)                 9.121228809161066E+10,      /* J = 25 */
(PID.TID 0000.0001)                 9.282883862289705E+10,      /* J = 26 */
(PID.TID 0000.0001)                 9.422175635109474E+10,      /* J = 27 */
(PID.TID 0000.0001)                 9.538768561539165E+10,      /* J = 28 */
(PID.TID 0000.0001)                 9.632381759006650E+10,      /* J = 29 */
(PID.TID 0000.0001)                 9.702789705119698E+10,      /* J = 30 */
(PID.TID 0000.0001)                 9.749822780969106E+10,      /* J = 31 */
(PID.TID 0000.0001)     2 @  9.773367679755542E+10,             /* J = 32: 33 */
(PID.TID 0000.0001)                 9.749822780969106E+10,      /* J = 34 */
(PID.TID 0000.0001)                 9.702789705119698E+10,      /* J = 35 */
(PID.TID 0000.0001)                 9.632381759006650E+10,      /* J = 36 */
(PID.TID 0000.0001)                 9.538768561539165E+10,      /* J = 37 */
(PID.TID 0000.0001)                 9.422175635109474E+10,      /* J = 38 */
(PID.TID 0000.0001)                 9.282883862289705E+10,      /* J = 39 */
(PID.TID 0000.0001)                 9.121228809161066E+10,      /* J = 40 */
(PID.TID 0000.0001)                 8.937599916905872E+10,      /* J = 41 */
(PID.TID 0000.0001)                 8.732439563609566E+10,      /* J = 42 */
(PID.TID 0000.0001)                 8.506241998533159E+10,      /* J = 43 */
(PID.TID 0000.0001)                 8.259552151423444E+10,      /* J = 44 */
(PID.TID 0000.0001)                 7.992964319729683E+10,      /* J = 45 */
(PID.TID 0000.0001)                 7.707120736888658E+10,      /* J = 46 */
(PID.TID 0000.0001)                 7.402710025128452E+10,      /* J = 47 */
(PID.TID 0000.0001)                 7.080465536516846E+10,      /* J = 48 */
(PID.TID 0000.0001)                 6.741163586252281E+10,      /* J = 49 */
(PID.TID 0000.0001)                 6.385621582452237E+10,      /* J = 50 */
(PID.TID 0000.0001)                 6.014696056945681E+10,      /* J = 51 */
(PID.TID 0000.0001)                 5.629280601812719E+10,      /* J = 52 */
(PID.TID 0000.0001)                 5.230303716643355E+10,      /* J = 53 */
(PID.TID 0000.0001)                 4.818726571700000E+10,      /* J = 54 */
(PID.TID 0000.0001)                 4.395540692374860E+10,      /* J = 55 */
(PID.TID 0000.0001)                 3.961765570517892E+10,      /* J = 56 */
(PID.TID 0000.0001)                 3.518446208391881E+10,      /* J = 57 */
(PID.TID 0000.0001)                 3.066650601170349E+10,      /* J = 58 */
(PID.TID 0000.0001)                 2.607467164043704E+10,      /* J = 59 */
(PID.TID 0000.0001)                 2.142002110131771E+10,      /* J = 60 */
(PID.TID 0000.0001)                 1.671376785519299E+10,      /* J = 61 */
(PID.TID 0000.0001)                 1.196724967835171E+10,      /* J = 62 */
(PID.TID 0000.0001)                 7.191901348828056E+09,      /* J = 63 */
(PID.TID 0000.0001)                 2.399227099019018E+09       /* J = 64 */
(PID.TID 0000.0001)     ;
(PID.TID 0000.0001) rAw =  /* rAw(:,1,:,1) ( units: m^2 ) */
(PID.TID 0000.0001)   128 @  2.399227099019018E+09              /* I =  1:128 */
(PID.TID 0000.0001)     ;
(PID.TID 0000.0001) rAw =  /* rAw(1,:,1,:) ( units: m^2 ) */
(PID.TID 0000.0001)                 2.399227099019018E+09,      /* J =  1 */
(PID.TID 0000.0001)                 7.191901348828056E+09,      /* J =  2 */
(PID.TID 0000.0001)                 1.196724967835171E+10,      /* J =  3 */
(PID.TID 0000.0001)                 1.671376785519299E+10,      /* J =  4 */
(PID.TID 0000.0001)                 2.142002110131771E+10,      /* J =  5 */
(PID.TID 0000.0001)                 2.607467164043704E+10,      /* J =  6 */
(PID.TID 0000.0001)                 3.066650601170349E+10,      /* J =  7 */
(PID.TID 0000.0001)                 3.518446208391881E+10,      /* J =  8 */
(PID.TID 0000.0001)                 3.961765570517892E+10,      /* J =  9 */
(PID.TID 0000.0001)                 4.395540692374860E+10,      /* J = 10 */
(PID.TID 0000.0001)                 4.818726571700000E+10,      /* J = 11 */
(PID.TID 0000.0001)                 5.230303716643355E+10,      /* J = 12 */
(PID.TID 0000.0001)                 5.629280601812719E+10,      /* J = 13 */
(PID.TID 0000.0001)                 6.014696056945681E+10,      /* J = 14 */
(PID.TID 0000.0001)                 6.385621582452237E+10,      /* J = 15 */
(PID.TID 0000.0001)                 6.741163586252281E+10,      /* J = 16 */
(PID.TID 0000.0001)                 7.080465536516846E+10,      /* J = 17 */
(PID.TID 0000.0001)                 7.402710025128452E+10,      /* J = 18 */
(PID.TID 0000.0001)                 7.707120736888658E+10,      /* J = 19 */
(PID.TID 0000.0001)                 7.992964319729683E+10,      /* J = 20 */
(PID.TID 0000.0001)                 8.259552151423444E+10,      /* J = 21 */
(PID.TID 0000.0001)                 8.506241998533159E+10,      /* J = 22 */
(PID.TID 0000.0001)                 8.732439563609566E+10,      /* J = 23 */
(PID.TID 0000.0001)                 8.937599916905872E+10,      /* J = 24 */
(PID.TID 0000.0001)                 9.121228809161066E+10,      /* J = 25 */
(PID.TID 0000.0001)                 9.282883862289705E+10,      /* J = 26 */
(PID.TID 0000.0001)                 9.422175635109474E+10,      /* J = 27 */
(PID.TID 0000.0001)                 9.538768561539165E+10,      /* J = 28 */
(PID.TID 0000.0001)                 9.632381759006650E+10,      /* J = 29 */
(PID.TID 0000.0001)                 9.702789705119698E+10,      /* J = 30 */
(PID.TID 0000.0001)                 9.749822780969106E+10,      /* J = 31 */
(PID.TID 0000.0001)     2 @  9.773367679755542E+10,             /* J = 32: 33 */
(PID.TID 0000.0001)                 9.749822780969106E+10,      /* J = 34 */
(PID.TID 0000.0001)                 9.702789705119698E+10,      /* J = 35 */
(PID.TID 0000.0001)                 9.632381759006650E+10,      /* J = 36 */
(PID.TID 0000.0001)                 9.538768561539165E+10,      /* J = 37 */
(PID.TID 0000.0001)                 9.422175635109474E+10,      /* J = 38 */
(PID.TID 0000.0001)                 9.282883862289705E+10,      /* J = 39 */
(PID.TID 0000.0001)                 9.121228809161066E+10,      /* J = 40 */
(PID.TID 0000.0001)                 8.937599916905872E+10,      /* J = 41 */
(PID.TID 0000.0001)                 8.732439563609566E+10,      /* J = 42 */
(PID.TID 0000.0001)                 8.506241998533159E+10,      /* J = 43 */
(PID.TID 0000.0001)                 8.259552151423444E+10,      /* J = 44 */
(PID.TID 0000.0001)                 7.992964319729683E+10,      /* J = 45 */
(PID.TID 0000.0001)                 7.707120736888658E+10,      /* J = 46 */
(PID.TID 0000.0001)                 7.402710025128452E+10,      /* J = 47 */
(PID.TID 0000.0001)                 7.080465536516846E+10,      /* J = 48 */
(PID.TID 0000.0001)                 6.741163586252281E+10,      /* J = 49 */
(PID.TID 0000.0001)                 6.385621582452237E+10,      /* J = 50 */
(PID.TID 0000.0001)                 6.014696056945681E+10,      /* J = 51 */
(PID.TID 0000.0001)                 5.629280601812719E+10,      /* J = 52 */
(PID.TID 0000.0001)                 5.230303716643355E+10,      /* J = 53 */
(PID.TID 0000.0001)                 4.818726571700000E+10,      /* J = 54 */
(PID.TID 0000.0001)                 4.395540692374860E+10,      /* J = 55 */
(PID.TID 0000.0001)                 3.961765570517892E+10,      /* J = 56 */
(PID.TID 0000.0001)                 3.518446208391881E+10,      /* J = 57 */
(PID.TID 0000.0001)                 3.066650601170349E+10,      /* J = 58 */
(PID.TID 0000.0001)                 2.607467164043704E+10,      /* J = 59 */
(PID.TID 0000.0001)                 2.142002110131771E+10,      /* J = 60 */
(PID.TID 0000.0001)                 1.671376785519299E+10,      /* J = 61 */
(PID.TID 0000.0001)                 1.196724967835171E+10,      /* J = 62 */
(PID.TID 0000.0001)                 7.191901348828056E+09,      /* J = 63 */
(PID.TID 0000.0001)                 2.399227099019018E+09       /* J = 64 */
(PID.TID 0000.0001)     ;
(PID.TID 0000.0001) rAs =  /* rAs(:,1,:,1) ( units: m^2 ) */
(PID.TID 0000.0001)   128 @  0.000000000000000E+00              /* I =  1:128 */
(PID.TID 0000.0001)     ;
(PID.TID 0000.0001) rAs =  /* rAs(1,:,1,:) ( units: m^2 ) */
(PID.TID 0000.0001)                 0.000000000000000E+00,      /* J =  1 */
(PID.TID 0000.0001)                 4.797008993346594E+09,      /* J =  2 */
(PID.TID 0000.0001)                 9.582461571859739E+09,      /* J =  3 */
(PID.TID 0000.0001)                 1.434482916112175E+10,      /* J =  4 */
(PID.TID 0000.0001)                 1.907263880047594E+10,      /* J =  5 */
(PID.TID 0000.0001)                 2.375450078239423E+10,      /* J =  6 */
(PID.TID 0000.0001)                 2.837913609127881E+10,      /* J =  7 */
(PID.TID 0000.0001)                 3.293540357560110E+10,      /* J =  8 */
(PID.TID 0000.0001)                 3.741232678790870E+10,      /* J =  9 */
(PID.TID 0000.0001)                 4.179912042805190E+10,      /* J = 10 */
(PID.TID 0000.0001)                 4.608521632591324E+10,      /* J = 11 */
(PID.TID 0000.0001)                 5.026028890105701E+10,      /* J = 12 */
(PID.TID 0000.0001)                 5.431428003795675E+10,      /* J = 13 */
(PID.TID 0000.0001)                 5.823742331687641E+10,      /* J = 14 */
(PID.TID 0000.0001)                 6.202026754202965E+10,      /* J = 15 */
(PID.TID 0000.0001)                 6.565369951034003E+10,      /* J = 16 */
(PID.TID 0000.0001)                 6.912896596594559E+10,      /* J = 17 */
(PID.TID 0000.0001)                 7.243769468755632E+10,      /* J = 18 */
(PID.TID 0000.0001)                 7.557191465787256E+10,      /* J = 19 */
(PID.TID 0000.0001)                 7.852407526645966E+10,      /* J = 20 */
(PID.TID 0000.0001)                 8.128706449983365E+10,      /* J = 21 */
(PID.TID 0000.0001)                 8.385422607492096E+10,      /* J = 22 */
(PID.TID 0000.0001)                 8.621937547463148E+10,      /* J = 23 */
(PID.TID 0000.0001)                 8.837681484689812E+10,      /* J = 24 */
(PID.TID 0000.0001)                 9.032134673130376E+10,      /* J = 25 */
(PID.TID 0000.0001)                 9.204828658021815E+10,      /* J = 26 */
(PID.TID 0000.0001)                 9.355347404428317E+10,      /* J = 27 */
(PID.TID 0000.0001)                 9.483328299505896E+10,      /* J = 28 */
(PID.TID 0000.0001)                 9.588463026068500E+10,      /* J = 29 */
(PID.TID 0000.0001)                 9.670498305351135E+10,      /* J = 30 */
(PID.TID 0000.0001)                 9.729236507180571E+10,      /* J = 31 */
(PID.TID 0000.0001)                 9.764536126083739E+10,      /* J = 32 */
(PID.TID 0000.0001)                 9.776312122186816E+10,      /* J = 33 */
(PID.TID 0000.0001)                 9.764536126083739E+10,      /* J = 34 */
(PID.TID 0000.0001)                 9.729236507180571E+10,      /* J = 35 */
(PID.TID 0000.0001)                 9.670498305351135E+10,      /* J = 36 */
(PID.TID 0000.0001)                 9.588463026068500E+10,      /* J = 37 */
(PID.TID 0000.0001)                 9.483328299505896E+10,      /* J = 38 */
(PID.TID 0000.0001)                 9.355347404428317E+10,      /* J = 39 */
(PID.TID 0000.0001)                 9.204828658021815E+10,      /* J = 40 */
(PID.TID 0000.0001)                 9.032134673130376E+10,      /* J = 41 */
(PID.TID 0000.0001)                 8.837681484689812E+10,      /* J = 42 */
(PID.TID 0000.0001)                 8.621937547463148E+10,      /* J = 43 */
(PID.TID 0000.0001)                 8.385422607492096E+10,      /* J = 44 */
(PID.TID 0000.0001)                 8.128706449983365E+10,      /* J = 45 */
(PID.TID 0000.0001)                 7.852407526645966E+10,      /* J = 46 */
(PID.TID 0000.0001)                 7.557191465787256E+10,      /* J = 47 */
(PID.TID 0000.0001)                 7.243769468755632E+10,      /* J = 48 */
(PID.TID 0000.0001)                 6.912896596594559E+10,      /* J = 49 */
(PID.TID 0000.0001)                 6.565369951034003E+10,      /* J = 50 */
(PID.TID 0000.0001)                 6.202026754202965E+10,      /* J = 51 */
(PID.TID 0000.0001)                 5.823742331687641E+10,      /* J = 52 */
(PID.TID 0000.0001)                 5.431428003795675E+10,      /* J = 53 */
(PID.TID 0000.0001)                 5.026028890105701E+10,      /* J = 54 */
(PID.TID 0000.0001)                 4.608521632591324E+10,      /* J = 55 */
(PID.TID 0000.0001)                 4.179912042805190E+10,      /* J = 56 */
(PID.TID 0000.0001)                 3.741232678790870E+10,      /* J = 57 */
(PID.TID 0000.0001)                 3.293540357560110E+10,      /* J = 58 */
(PID.TID 0000.0001)                 2.837913609127881E+10,      /* J = 59 */
(PID.TID 0000.0001)                 2.375450078239423E+10,      /* J = 60 */
(PID.TID 0000.0001)                 1.907263880047594E+10,      /* J = 61 */
(PID.TID 0000.0001)                 1.434482916112175E+10,      /* J = 62 */
(PID.TID 0000.0001)                 9.582461571859739E+09,      /* J = 63 */
(PID.TID 0000.0001)                 4.797008993346594E+09       /* J = 64 */
(PID.TID 0000.0001)     ;
(PID.TID 0000.0001) globalArea = /* Integrated horizontal Area (m^2) */
(PID.TID 0000.0001)                 3.303322488638320E+14
(PID.TID 0000.0001)     ;
(PID.TID 0000.0001) // =======================================================
(PID.TID 0000.0001) // End of Model config. summary
(PID.TID 0000.0001) // =======================================================
(PID.TID 0000.0001) 
(PID.TID 0000.0001) == Packages configuration : Check & print summary ==
(PID.TID 0000.0001) 
(PID.TID 0000.0001) GGL90_CHECK: #define ALLOW_GGL90
(PID.TID 0000.0001) GGL90_CHECK: Some form of convection has been enabled
(PID.TID 0000.0001) GMREDI_CHECK: #define GMREDI
(PID.TID 0000.0001) GM_AdvForm =     /* if FALSE => use SkewFlux Form */
(PID.TID 0000.0001)                   F
(PID.TID 0000.0001)     ;
(PID.TID 0000.0001) GM_InMomAsStress = /* if TRUE => apply as Eddy Stress */
(PID.TID 0000.0001)                   F
(PID.TID 0000.0001)     ;
(PID.TID 0000.0001) GM_AdvSeparate = /* Calc Bolus & Euler Adv. separately */
(PID.TID 0000.0001)                   F
(PID.TID 0000.0001)     ;
(PID.TID 0000.0001) GM_ExtraDiag =   /* Tensor Extra Diag (line 1&2) non 0 */
(PID.TID 0000.0001)                   F
(PID.TID 0000.0001)     ;
(PID.TID 0000.0001) GM_isopycK =    /* Background Isopyc. Diffusivity [m^2/s] */
(PID.TID 0000.0001)                 1.000000000000000E+03
(PID.TID 0000.0001)     ;
(PID.TID 0000.0001) GM_skewflx*K =  /* Background GM_SkewFlx Diffusivity [m^2/s] */
(PID.TID 0000.0001)                 1.000000000000000E+03
(PID.TID 0000.0001)     ;
(PID.TID 0000.0001) GM_advec*K =    /* Backg. GM-Advec(=Bolus) Diffusivity [m^2/s]*/
(PID.TID 0000.0001)                 0.000000000000000E+00
(PID.TID 0000.0001)     ;
(PID.TID 0000.0001) GM_Kmin_horiz = /* Minimum Horizontal Diffusivity [m^2/s] */
(PID.TID 0000.0001)                 1.000000000000000E+02
(PID.TID 0000.0001)     ;
(PID.TID 0000.0001) GM_Visbeck_alpha = /* Visbeck alpha coeff. [-] */
(PID.TID 0000.0001)                 0.000000000000000E+00
(PID.TID 0000.0001)     ;
(PID.TID 0000.0001) GM_Small_Number =  /* epsilon used in slope calc */
(PID.TID 0000.0001)                 9.999999999999999E-21
(PID.TID 0000.0001)     ;
(PID.TID 0000.0001) GM_slopeSqCutoff = /* Slope^2 cut-off value */
(PID.TID 0000.0001)                 1.000000000000000E+48
(PID.TID 0000.0001)     ;
(PID.TID 0000.0001) GM_taper_scheme =  /* Type of Tapering/Clipping scheme */
(PID.TID 0000.0001)               'gkw91                                   '
(PID.TID 0000.0001)     ;
(PID.TID 0000.0001) GM_maxSlope =  /* Maximum Slope (Tapering/Clipping) */
(PID.TID 0000.0001)                 1.000000000000000E-02
(PID.TID 0000.0001)     ;
(PID.TID 0000.0001) GM_facTrL2dz = /* Minimum Trans.Layer Thick. (factor of dz) */
(PID.TID 0000.0001)                 1.000000000000000E+00
(PID.TID 0000.0001)     ;
(PID.TID 0000.0001) GM_facTrL2ML = /* Max.Trans.Layer Thick. (factor of MxL Depth)*/
(PID.TID 0000.0001)                 5.000000000000000E+00
(PID.TID 0000.0001)     ;
(PID.TID 0000.0001) GM_maxTransLay = /* Maximum Transition Layer Thickness [m] */
(PID.TID 0000.0001)                 5.000000000000000E+02
(PID.TID 0000.0001)     ;
(PID.TID 0000.0001) GM_UseBVP = /* if TRUE => use bvp a la Ferrari et al. (2010) */
(PID.TID 0000.0001)                   F
(PID.TID 0000.0001)     ;
(PID.TID 0000.0001) GM_BVP_ModeNumber = /* Vertical mode number for BVP wave speed */
(PID.TID 0000.0001)                       1
(PID.TID 0000.0001)     ;
(PID.TID 0000.0001) GM_BVP_cMin = /* Minimum wave speed for BVP [m/s] */
(PID.TID 0000.0001)                 1.000000000000000E-01
(PID.TID 0000.0001)     ;
(PID.TID 0000.0001) GM_useSubMeso = /* if TRUE => use Sub-Meso param. (B.Fox-Kemper) */
(PID.TID 0000.0001)                   F
(PID.TID 0000.0001)     ;
(PID.TID 0000.0001) subMeso_Ceff = /* efficiency coeff. of Mixed-Layer Eddies [-] */
(PID.TID 0000.0001)                 7.000000000000001E-02
(PID.TID 0000.0001)     ;
(PID.TID 0000.0001) subMeso_invTau = /* inverse of Sub-Meso mixing time-scale [/s] */
(PID.TID 0000.0001)                 2.000000000000000E-06
(PID.TID 0000.0001)     ;
(PID.TID 0000.0001) subMeso_LfMin = /* minimum length-scale "Lf" [m] */
(PID.TID 0000.0001)                 1.000000000000000E+03
(PID.TID 0000.0001)     ;
(PID.TID 0000.0001) subMeso_Lmax = /* maximum grid-scale length [m] */
(PID.TID 0000.0001)                 1.100000000000000E+05
(PID.TID 0000.0001)     ;
(PID.TID 0000.0001) EXF_CHECK: #define ALLOW_EXF
(PID.TID 0000.0001) PTRACERS_CHECK: #define ALLOW_PTRACERS
(PID.TID 0000.0001) // ===================================
(PID.TID 0000.0001) // PTRACERS parameters
(PID.TID 0000.0001) // ===================================
(PID.TID 0000.0001) PTRACERS_numInUse = /* number of tracers */
(PID.TID 0000.0001)                       5
(PID.TID 0000.0001)     ;
(PID.TID 0000.0001) PTRACERS_Iter0 = /* timestep number when tracers are initialized */
(PID.TID 0000.0001)                       0
(PID.TID 0000.0001)     ;
(PID.TID 0000.0001) PTRACERS_startAllTrc =/* all tracers start @ startTime */
(PID.TID 0000.0001)                   T
(PID.TID 0000.0001)     ;
(PID.TID 0000.0001) PTRACERS_doAB_onGpTr =/* apply AB on Tendencies (rather than on Tracers) */
(PID.TID 0000.0001)                   T
(PID.TID 0000.0001)     ;
(PID.TID 0000.0001) PTRACERS_addSrelax2EmP =/* add Salt relaxation to EmP */
(PID.TID 0000.0001)                   F
(PID.TID 0000.0001)     ;
(PID.TID 0000.0001) PTRACERS_dTLev =   /* Ptracer timestep ( s ) */
(PID.TID 0000.0001)    15 @  9.000000000000000E+02              /* K =  1: 15 */
(PID.TID 0000.0001)     ;
(PID.TID 0000.0001) PTRACERS_monitorFreq = /* Frequency^-1 for monitor output (s) */
(PID.TID 0000.0001)                 1.000000000000000E+00
(PID.TID 0000.0001)     ;
(PID.TID 0000.0001) PTRACERS_dumpFreq = /* Frequency^-1 for snapshot output (s) */
(PID.TID 0000.0001)                 0.000000000000000E+00
(PID.TID 0000.0001)     ;
(PID.TID 0000.0001) PTRACERS_taveFreq = /* Frequency^-1 for time-Aver. output (s) */
(PID.TID 0000.0001)                 0.000000000000000E+00
(PID.TID 0000.0001)     ;
(PID.TID 0000.0001) PTRACERS_useRecords = /* all tracers in 1 file */
(PID.TID 0000.0001)                   F
(PID.TID 0000.0001)     ;
(PID.TID 0000.0001) PTRACERS_timeave_mnc = /* use MNC for Tave output */
(PID.TID 0000.0001)                   F
(PID.TID 0000.0001)     ;
(PID.TID 0000.0001) PTRACERS_snapshot_mnc = /* use MNC for snapshot output */
(PID.TID 0000.0001)                   F
(PID.TID 0000.0001)     ;
(PID.TID 0000.0001) PTRACERS_pickup_write_mnc = /* use MNC for writing pickups */
(PID.TID 0000.0001)                   F
(PID.TID 0000.0001)     ;
(PID.TID 0000.0001) PTRACERS_pickup_read_mnc = /* use MNC for reading pickups */
(PID.TID 0000.0001)                   F
(PID.TID 0000.0001)     ;
(PID.TID 0000.0001)  -----------------------------------
(PID.TID 0000.0001)  tracer number :    1
(PID.TID 0000.0001) PTRACERS_names = /* Tracer short name */
(PID.TID 0000.0001)               'DIC'
(PID.TID 0000.0001)     ;
(PID.TID 0000.0001) PTRACERS_long_names = /* Tracer long name */
(PID.TID 0000.0001)               'Dissolved Inorganic Carbon (DIC) [mol C/m^3]'
(PID.TID 0000.0001)     ;
(PID.TID 0000.0001) PTRACERS_ioLabel = /* tracer IO Label */
(PID.TID 0000.0001)               '01'
(PID.TID 0000.0001)     ;
(PID.TID 0000.0001) PTRACERS_advScheme = /* Advection Scheme */
(PID.TID 0000.0001)                      77
(PID.TID 0000.0001)     ;
(PID.TID 0000.0001) PTRACERS_SOM_Advection = /* tracer uses SOM advection scheme */
(PID.TID 0000.0001)                   F
(PID.TID 0000.0001)     ;
(PID.TID 0000.0001) PTRACERS_ImplVertAdv = /* implicit vert. advection flag */
(PID.TID 0000.0001)                   F
(PID.TID 0000.0001)     ;
(PID.TID 0000.0001) PTRACERS_MultiDimAdv = /* tracer uses Multi-Dim advection */
(PID.TID 0000.0001)                   T
(PID.TID 0000.0001)     ;
(PID.TID 0000.0001) PTRACERS_AdamsBashGtr = /* apply AB on tracer tendency */
(PID.TID 0000.0001)                   F
(PID.TID 0000.0001)     ;
(PID.TID 0000.0001) PTRACERS_AdamsBash_Tr = /* apply AB on passive tracer */
(PID.TID 0000.0001)                   F
(PID.TID 0000.0001)     ;
(PID.TID 0000.0001) PTRACERS_diffKh = /* Laplacian Diffusivity */
(PID.TID 0000.0001)                 0.000000000000000E+00
(PID.TID 0000.0001)     ;
(PID.TID 0000.0001) PTRACERS_diffK4 = /* Biharmonic Diffusivity */
(PID.TID 0000.0001)                 0.000000000000000E+00
(PID.TID 0000.0001)     ;
(PID.TID 0000.0001) PTRACERS_diffKrNr = /* Vertical Diffusivity */
(PID.TID 0000.0001)    15 @  3.000000000000000E-05              /* K =  1: 15 */
(PID.TID 0000.0001)     ;
(PID.TID 0000.0001) PTRACERS_useGMRedi = /* apply GM-Redi */
(PID.TID 0000.0001)                   T
(PID.TID 0000.0001)     ;
(PID.TID 0000.0001) PTRACERS_useDWNSLP = /* apply DOWN-SLOPE Flow */
(PID.TID 0000.0001)                   F
(PID.TID 0000.0001)     ;
(PID.TID 0000.0001) PTRACERS_useKPP = /* apply KPP scheme */
(PID.TID 0000.0001)                   F
(PID.TID 0000.0001)     ;
(PID.TID 0000.0001) PTRACERS_ref = /* Reference vertical profile */
(PID.TID 0000.0001)                 2.028200000000000E+00,      /* K =  1 */
(PID.TID 0000.0001)                 2.060900000000000E+00,      /* K =  2 */
(PID.TID 0000.0001)                 2.120600000000000E+00,      /* K =  3 */
(PID.TID 0000.0001)                 2.158100000000000E+00,      /* K =  4 */
(PID.TID 0000.0001)                 2.190400000000000E+00,      /* K =  5 */
(PID.TID 0000.0001)                 2.218800000000000E+00,      /* K =  6 */
(PID.TID 0000.0001)                 2.247400000000000E+00,      /* K =  7 */
(PID.TID 0000.0001)                 2.269900000000000E+00,      /* K =  8 */
(PID.TID 0000.0001)                 2.279200000000000E+00,      /* K =  9 */
(PID.TID 0000.0001)                 2.281400000000000E+00,      /* K = 10 */
(PID.TID 0000.0001)                 2.281500000000000E+00,      /* K = 11 */
(PID.TID 0000.0001)                 2.280600000000000E+00,      /* K = 12 */
(PID.TID 0000.0001)                 2.280000000000000E+00,      /* K = 13 */
(PID.TID 0000.0001)                 2.276000000000000E+00,      /* K = 14 */
(PID.TID 0000.0001)                 2.275800000000000E+00       /* K = 15 */
(PID.TID 0000.0001)     ;
(PID.TID 0000.0001) PTRACERS_EvPrRn =/* tracer conc. in Evap. & Rain */
(PID.TID 0000.0001)                 0.000000000000000E+00
(PID.TID 0000.0001)     ;
(PID.TID 0000.0001)  -----------------------------------
(PID.TID 0000.0001)  tracer number :    2
(PID.TID 0000.0001) PTRACERS_names = /* Tracer short name */
(PID.TID 0000.0001)               'Alk'
(PID.TID 0000.0001)     ;
(PID.TID 0000.0001) PTRACERS_long_names = /* Tracer long name */
(PID.TID 0000.0001)               'Alkalinity (Alk) [mol eq/m^3]'
(PID.TID 0000.0001)     ;
(PID.TID 0000.0001) PTRACERS_ioLabel = /* tracer IO Label */
(PID.TID 0000.0001)               '02'
(PID.TID 0000.0001)     ;
(PID.TID 0000.0001) PTRACERS_advScheme = /* Advection Scheme */
(PID.TID 0000.0001)                      77
(PID.TID 0000.0001)     ;
(PID.TID 0000.0001) PTRACERS_SOM_Advection = /* tracer uses SOM advection scheme */
(PID.TID 0000.0001)                   F
(PID.TID 0000.0001)     ;
(PID.TID 0000.0001) PTRACERS_ImplVertAdv = /* implicit vert. advection flag */
(PID.TID 0000.0001)                   F
(PID.TID 0000.0001)     ;
(PID.TID 0000.0001) PTRACERS_MultiDimAdv = /* tracer uses Multi-Dim advection */
(PID.TID 0000.0001)                   T
(PID.TID 0000.0001)     ;
(PID.TID 0000.0001) PTRACERS_AdamsBashGtr = /* apply AB on tracer tendency */
(PID.TID 0000.0001)                   F
(PID.TID 0000.0001)     ;
(PID.TID 0000.0001) PTRACERS_AdamsBash_Tr = /* apply AB on passive tracer */
(PID.TID 0000.0001)                   F
(PID.TID 0000.0001)     ;
(PID.TID 0000.0001) PTRACERS_diffKh = /* Laplacian Diffusivity */
(PID.TID 0000.0001)                 0.000000000000000E+00
(PID.TID 0000.0001)     ;
(PID.TID 0000.0001) PTRACERS_diffK4 = /* Biharmonic Diffusivity */
(PID.TID 0000.0001)                 0.000000000000000E+00
(PID.TID 0000.0001)     ;
(PID.TID 0000.0001) PTRACERS_diffKrNr = /* Vertical Diffusivity */
(PID.TID 0000.0001)    15 @  3.000000000000000E-05              /* K =  1: 15 */
(PID.TID 0000.0001)     ;
(PID.TID 0000.0001) PTRACERS_useGMRedi = /* apply GM-Redi */
(PID.TID 0000.0001)                   T
(PID.TID 0000.0001)     ;
(PID.TID 0000.0001) PTRACERS_useDWNSLP = /* apply DOWN-SLOPE Flow */
(PID.TID 0000.0001)                   F
(PID.TID 0000.0001)     ;
(PID.TID 0000.0001) PTRACERS_useKPP = /* apply KPP scheme */
(PID.TID 0000.0001)                   F
(PID.TID 0000.0001)     ;
(PID.TID 0000.0001) PTRACERS_ref = /* Reference vertical profile */
(PID.TID 0000.0001)                 2.308600000000000E+00,      /* K =  1 */
(PID.TID 0000.0001)                 2.314900000000000E+00,      /* K =  2 */
(PID.TID 0000.0001)                 2.316400000000000E+00,      /* K =  3 */
(PID.TID 0000.0001)                 2.311200000000000E+00,      /* K =  4 */
(PID.TID 0000.0001)                 2.309800000000000E+00,      /* K =  5 */
(PID.TID 0000.0001)                 2.316000000000000E+00,      /* K =  6 */
(PID.TID 0000.0001)                 2.331300000000000E+00,      /* K =  7 */
(PID.TID 0000.0001)                 2.351700000000000E+00,      /* K =  8 */
(PID.TID 0000.0001)                 2.366700000000000E+00,      /* K =  9 */
(PID.TID 0000.0001)                 2.376100000000000E+00,      /* K = 10 */
(PID.TID 0000.0001)                 2.383200000000000E+00,      /* K = 11 */
(PID.TID 0000.0001)                 2.386200000000000E+00,      /* K = 12 */
(PID.TID 0000.0001)                 2.388100000000000E+00,      /* K = 13 */
(PID.TID 0000.0001)                 2.386300000000000E+00,      /* K = 14 */
(PID.TID 0000.0001)                 2.386700000000000E+00       /* K = 15 */
(PID.TID 0000.0001)     ;
(PID.TID 0000.0001) PTRACERS_EvPrRn =/* tracer conc. in Evap. & Rain */
(PID.TID 0000.0001)                 0.000000000000000E+00
(PID.TID 0000.0001)     ;
(PID.TID 0000.0001)  -----------------------------------
(PID.TID 0000.0001)  tracer number :    3
(PID.TID 0000.0001) PTRACERS_names = /* Tracer short name */
(PID.TID 0000.0001)               'PO4'
(PID.TID 0000.0001)     ;
(PID.TID 0000.0001) PTRACERS_long_names = /* Tracer long name */
(PID.TID 0000.0001)               'Phosphate (PO4) [mol P/m^3]'
(PID.TID 0000.0001)     ;
(PID.TID 0000.0001) PTRACERS_ioLabel = /* tracer IO Label */
(PID.TID 0000.0001)               '03'
(PID.TID 0000.0001)     ;
(PID.TID 0000.0001) PTRACERS_advScheme = /* Advection Scheme */
(PID.TID 0000.0001)                      77
(PID.TID 0000.0001)     ;
(PID.TID 0000.0001) PTRACERS_SOM_Advection = /* tracer uses SOM advection scheme */
(PID.TID 0000.0001)                   F
(PID.TID 0000.0001)     ;
(PID.TID 0000.0001) PTRACERS_ImplVertAdv = /* implicit vert. advection flag */
(PID.TID 0000.0001)                   F
(PID.TID 0000.0001)     ;
(PID.TID 0000.0001) PTRACERS_MultiDimAdv = /* tracer uses Multi-Dim advection */
(PID.TID 0000.0001)                   T
(PID.TID 0000.0001)     ;
(PID.TID 0000.0001) PTRACERS_AdamsBashGtr = /* apply AB on tracer tendency */
(PID.TID 0000.0001)                   F
(PID.TID 0000.0001)     ;
(PID.TID 0000.0001) PTRACERS_AdamsBash_Tr = /* apply AB on passive tracer */
(PID.TID 0000.0001)                   F
(PID.TID 0000.0001)     ;
(PID.TID 0000.0001) PTRACERS_diffKh = /* Laplacian Diffusivity */
(PID.TID 0000.0001)                 0.000000000000000E+00
(PID.TID 0000.0001)     ;
(PID.TID 0000.0001) PTRACERS_diffK4 = /* Biharmonic Diffusivity */
(PID.TID 0000.0001)                 0.000000000000000E+00
(PID.TID 0000.0001)     ;
(PID.TID 0000.0001) PTRACERS_diffKrNr = /* Vertical Diffusivity */
(PID.TID 0000.0001)    15 @  3.000000000000000E-05              /* K =  1: 15 */
(PID.TID 0000.0001)     ;
(PID.TID 0000.0001) PTRACERS_useGMRedi = /* apply GM-Redi */
(PID.TID 0000.0001)                   T
(PID.TID 0000.0001)     ;
(PID.TID 0000.0001) PTRACERS_useDWNSLP = /* apply DOWN-SLOPE Flow */
(PID.TID 0000.0001)                   F
(PID.TID 0000.0001)     ;
(PID.TID 0000.0001) PTRACERS_useKPP = /* apply KPP scheme */
(PID.TID 0000.0001)                   F
(PID.TID 0000.0001)     ;
(PID.TID 0000.0001) PTRACERS_ref = /* Reference vertical profile */
(PID.TID 0000.0001)                 5.438000000000000E-04,      /* K =  1 */
(PID.TID 0000.0001)                 7.821000000000000E-04,      /* K =  2 */
(PID.TID 0000.0001)                 1.133500000000000E-03,      /* K =  3 */
(PID.TID 0000.0001)                 1.491300000000000E-03,      /* K =  4 */
(PID.TID 0000.0001)                 1.860600000000000E-03,      /* K =  5 */
(PID.TID 0000.0001)                 2.198600000000000E-03,      /* K =  6 */
(PID.TID 0000.0001)                 2.396600000000000E-03,      /* K =  7 */
(PID.TID 0000.0001)                 2.418700000000000E-03,      /* K =  8 */
(PID.TID 0000.0001)                 2.404600000000000E-03,      /* K =  9 */
(PID.TID 0000.0001)                 2.329100000000000E-03,      /* K = 10 */
(PID.TID 0000.0001)                 2.292200000000000E-03,      /* K = 11 */
(PID.TID 0000.0001)                 2.288600000000000E-03,      /* K = 12 */
(PID.TID 0000.0001)                 2.260800000000000E-03,      /* K = 13 */
(PID.TID 0000.0001)                 2.235600000000000E-03,      /* K = 14 */
(PID.TID 0000.0001)                 2.229600000000000E-03       /* K = 15 */
(PID.TID 0000.0001)     ;
(PID.TID 0000.0001) PTRACERS_EvPrRn =/* tracer conc. in Evap. & Rain */
(PID.TID 0000.0001)                 1.234567000000000E+05
(PID.TID 0000.0001)     ;
(PID.TID 0000.0001)  -----------------------------------
(PID.TID 0000.0001)  tracer number :    4
(PID.TID 0000.0001) PTRACERS_names = /* Tracer short name */
(PID.TID 0000.0001)               'DOP'
(PID.TID 0000.0001)     ;
(PID.TID 0000.0001) PTRACERS_long_names = /* Tracer long name */
(PID.TID 0000.0001)               'Dissolved Organic Phosphorus (DOP) [mol P/m^3]'
(PID.TID 0000.0001)     ;
(PID.TID 0000.0001) PTRACERS_ioLabel = /* tracer IO Label */
(PID.TID 0000.0001)               '04'
(PID.TID 0000.0001)     ;
(PID.TID 0000.0001) PTRACERS_advScheme = /* Advection Scheme */
(PID.TID 0000.0001)                      77
(PID.TID 0000.0001)     ;
(PID.TID 0000.0001) PTRACERS_SOM_Advection = /* tracer uses SOM advection scheme */
(PID.TID 0000.0001)                   F
(PID.TID 0000.0001)     ;
(PID.TID 0000.0001) PTRACERS_ImplVertAdv = /* implicit vert. advection flag */
(PID.TID 0000.0001)                   F
(PID.TID 0000.0001)     ;
(PID.TID 0000.0001) PTRACERS_MultiDimAdv = /* tracer uses Multi-Dim advection */
(PID.TID 0000.0001)                   T
(PID.TID 0000.0001)     ;
(PID.TID 0000.0001) PTRACERS_AdamsBashGtr = /* apply AB on tracer tendency */
(PID.TID 0000.0001)                   F
(PID.TID 0000.0001)     ;
(PID.TID 0000.0001) PTRACERS_AdamsBash_Tr = /* apply AB on passive tracer */
(PID.TID 0000.0001)                   F
(PID.TID 0000.0001)     ;
(PID.TID 0000.0001) PTRACERS_diffKh = /* Laplacian Diffusivity */
(PID.TID 0000.0001)                 0.000000000000000E+00
(PID.TID 0000.0001)     ;
(PID.TID 0000.0001) PTRACERS_diffK4 = /* Biharmonic Diffusivity */
(PID.TID 0000.0001)                 0.000000000000000E+00
(PID.TID 0000.0001)     ;
(PID.TID 0000.0001) PTRACERS_diffKrNr = /* Vertical Diffusivity */
(PID.TID 0000.0001)    15 @  3.000000000000000E-05              /* K =  1: 15 */
(PID.TID 0000.0001)     ;
(PID.TID 0000.0001) PTRACERS_useGMRedi = /* apply GM-Redi */
(PID.TID 0000.0001)                   T
(PID.TID 0000.0001)     ;
(PID.TID 0000.0001) PTRACERS_useDWNSLP = /* apply DOWN-SLOPE Flow */
(PID.TID 0000.0001)                   F
(PID.TID 0000.0001)     ;
(PID.TID 0000.0001) PTRACERS_useKPP = /* apply KPP scheme */
(PID.TID 0000.0001)                   F
(PID.TID 0000.0001)     ;
(PID.TID 0000.0001) PTRACERS_ref = /* Reference vertical profile */
(PID.TID 0000.0001)    15 @  0.000000000000000E+00              /* K =  1: 15 */
(PID.TID 0000.0001)     ;
(PID.TID 0000.0001) PTRACERS_EvPrRn =/* tracer conc. in Evap. & Rain */
(PID.TID 0000.0001)                 1.234567000000000E+05
(PID.TID 0000.0001)     ;
(PID.TID 0000.0001)  -----------------------------------
(PID.TID 0000.0001)  tracer number :    5
(PID.TID 0000.0001) PTRACERS_names = /* Tracer short name */
(PID.TID 0000.0001)               'O2'
(PID.TID 0000.0001)     ;
(PID.TID 0000.0001) PTRACERS_long_names = /* Tracer long name */
(PID.TID 0000.0001)               'Dissolved Oxygen (O2) [mol O/m^3]'
(PID.TID 0000.0001)     ;
(PID.TID 0000.0001) PTRACERS_ioLabel = /* tracer IO Label */
(PID.TID 0000.0001)               '05'
(PID.TID 0000.0001)     ;
(PID.TID 0000.0001) PTRACERS_advScheme = /* Advection Scheme */
(PID.TID 0000.0001)                      77
(PID.TID 0000.0001)     ;
(PID.TID 0000.0001) PTRACERS_SOM_Advection = /* tracer uses SOM advection scheme */
(PID.TID 0000.0001)                   F
(PID.TID 0000.0001)     ;
(PID.TID 0000.0001) PTRACERS_ImplVertAdv = /* implicit vert. advection flag */
(PID.TID 0000.0001)                   F
(PID.TID 0000.0001)     ;
(PID.TID 0000.0001) PTRACERS_MultiDimAdv = /* tracer uses Multi-Dim advection */
(PID.TID 0000.0001)                   T
(PID.TID 0000.0001)     ;
(PID.TID 0000.0001) PTRACERS_AdamsBashGtr = /* apply AB on tracer tendency */
(PID.TID 0000.0001)                   F
(PID.TID 0000.0001)     ;
(PID.TID 0000.0001) PTRACERS_AdamsBash_Tr = /* apply AB on passive tracer */
(PID.TID 0000.0001)                   F
(PID.TID 0000.0001)     ;
(PID.TID 0000.0001) PTRACERS_diffKh = /* Laplacian Diffusivity */
(PID.TID 0000.0001)                 0.000000000000000E+00
(PID.TID 0000.0001)     ;
(PID.TID 0000.0001) PTRACERS_diffK4 = /* Biharmonic Diffusivity */
(PID.TID 0000.0001)                 0.000000000000000E+00
(PID.TID 0000.0001)     ;
(PID.TID 0000.0001) PTRACERS_diffKrNr = /* Vertical Diffusivity */
(PID.TID 0000.0001)    15 @  3.000000000000000E-05              /* K =  1: 15 */
(PID.TID 0000.0001)     ;
(PID.TID 0000.0001) PTRACERS_useGMRedi = /* apply GM-Redi */
(PID.TID 0000.0001)                   T
(PID.TID 0000.0001)     ;
(PID.TID 0000.0001) PTRACERS_useDWNSLP = /* apply DOWN-SLOPE Flow */
(PID.TID 0000.0001)                   F
(PID.TID 0000.0001)     ;
(PID.TID 0000.0001) PTRACERS_useKPP = /* apply KPP scheme */
(PID.TID 0000.0001)                   F
(PID.TID 0000.0001)     ;
(PID.TID 0000.0001) PTRACERS_ref = /* Reference vertical profile */
(PID.TID 0000.0001)                 2.457000000000000E-01,      /* K =  1 */
(PID.TID 0000.0001)                 2.336000000000000E-01,      /* K =  2 */
(PID.TID 0000.0001)                 1.975000000000000E-01,      /* K =  3 */
(PID.TID 0000.0001)                 1.729000000000000E-01,      /* K =  4 */
(PID.TID 0000.0001)                 1.591000000000000E-01,      /* K =  5 */
(PID.TID 0000.0001)                 1.503000000000000E-01,      /* K =  6 */
(PID.TID 0000.0001)                 1.424000000000000E-01,      /* K =  7 */
(PID.TID 0000.0001)                 1.445000000000000E-01,      /* K =  8 */
(PID.TID 0000.0001)                 1.549000000000000E-01,      /* K =  9 */
(PID.TID 0000.0001)                 1.661000000000000E-01,      /* K = 10 */
(PID.TID 0000.0001)                 1.774000000000000E-01,      /* K = 11 */
(PID.TID 0000.0001)                 1.863000000000000E-01,      /* K = 12 */
(PID.TID 0000.0001)                 1.925000000000000E-01,      /* K = 13 */
(PID.TID 0000.0001)                 2.021000000000000E-01,      /* K = 14 */
(PID.TID 0000.0001)                 2.051000000000000E-01       /* K = 15 */
(PID.TID 0000.0001)     ;
(PID.TID 0000.0001) PTRACERS_EvPrRn =/* tracer conc. in Evap. & Rain */
(PID.TID 0000.0001)                 1.234567000000000E+05
(PID.TID 0000.0001)     ;
(PID.TID 0000.0001)  -----------------------------------
(PID.TID 0000.0001) GCHEM_CHECK: #define ALLOW_GCHEM
(PID.TID 0000.0001) SEAICE_CHECK: #define ALLOW_SEAICE
(PID.TID 0000.0001) SALT_PLUME_CHECK: #define SALT_PLUME
(PID.TID 0000.0001) GAD_CHECK: #define ALLOW_GENERIC_ADVDIFF
(PID.TID 0000.0001) // =======================================================
(PID.TID 0000.0001) // Check Model config. (CONFIG_CHECK):
(PID.TID 0000.0001) // CONFIG_CHECK : Normal End
(PID.TID 0000.0001) // =======================================================
(PID.TID 0000.0001) 
(PID.TID 0000.0001)  MDS_WRITE_FIELD: it,rec,kS,kL,kH=      -1     1   1   1   1 file=XC
(PID.TID 0000.0001)  MDS_WRITE_FIELD: it,rec,kS,kL,kH=      -1     1   1   1   1 file=YC
(PID.TID 0000.0001)  MDS_WRITE_FIELD: it,rec,kS,kL,kH=      -1     1   1   1   1 file=XG
(PID.TID 0000.0001)  MDS_WRITE_FIELD: it,rec,kS,kL,kH=      -1     1   1   1   1 file=YG
(PID.TID 0000.0001)  MDS_WRITE_FIELD: it,rec,kS,kL,kH=      -1     1   1   1   1 file=RAC
(PID.TID 0000.0001)  MDS_WRITE_FIELD: it,rec,kS,kL,kH=      -1     1   1   1   1 file=RAW
(PID.TID 0000.0001)  MDS_WRITE_FIELD: it,rec,kS,kL,kH=      -1     1   1   1   1 file=RAS
(PID.TID 0000.0001)  MDS_WRITE_FIELD: it,rec,kS,kL,kH=      -1     1   1   1   1 file=RAZ
(PID.TID 0000.0001)  MDS_WRITE_FIELD: it,rec,kS,kL,kH=      -1     1   1   1   1 file=DXG
(PID.TID 0000.0001)  MDS_WRITE_FIELD: it,rec,kS,kL,kH=      -1     1   1   1   1 file=DYG
(PID.TID 0000.0001)  MDS_WRITE_FIELD: it,rec,kS,kL,kH=      -1     1   1   1   1 file=DXC
(PID.TID 0000.0001)  MDS_WRITE_FIELD: it,rec,kS,kL,kH=      -1     1   1   1   1 file=DYC
(PID.TID 0000.0001)  MDS_WRITE_FIELD: it,rec,kS,kL,kH=      -1     1   1   1   1 file=Depth
(PID.TID 0000.0001)  MDS_WRITE_FIELD: it,rec,kS,kL,kH=      -1     1   1   1   1 file=rLowC
(PID.TID 0000.0001)  MDS_WRITE_FIELD: it,rec,kS,kL,kH=      -1     1   1   1   1 file=rLowW
(PID.TID 0000.0001)  MDS_WRITE_FIELD: it,rec,kS,kL,kH=      -1     1   1   1   1 file=rLowS
(PID.TID 0000.0001)  MDS_WRITE_FIELD: it,rec,kS,kL,kH=      -1     1   1   1   1 file=rSurfC
(PID.TID 0000.0001)  MDS_WRITE_FIELD: it,rec,kS,kL,kH=      -1     1   1   1   1 file=rSurfW
(PID.TID 0000.0001)  MDS_WRITE_FIELD: it,rec,kS,kL,kH=      -1     1   1   1   1 file=rSurfS
(PID.TID 0000.0001)  MDS_WRITE_FIELD: it,rec,kS,kL,kH=       0     1  15   1  15 file=hFacC
(PID.TID 0000.0001)  MDS_WRITE_FIELD: it,rec,kS,kL,kH=       0     1  15   1  15 file=hFacW
(PID.TID 0000.0001)  MDS_WRITE_FIELD: it,rec,kS,kL,kH=       0     1  15   1  15 file=hFacS
(PID.TID 0000.0001)  MDS_WRITEVEC_LOC: open file: RC.data
(PID.TID 0000.0001)  MDS_WR_REC_RS: iRec,Dim =         1         15
(PID.TID 0000.0001)  MDS_WRITEVEC_LOC: open file: RF.data
(PID.TID 0000.0001)  MDS_WR_REC_RS: iRec,Dim =         1         16
(PID.TID 0000.0001)  MDS_WRITEVEC_LOC: open file: DRC.data
(PID.TID 0000.0001)  MDS_WR_REC_RS: iRec,Dim =         1         16
(PID.TID 0000.0001)  MDS_WRITEVEC_LOC: open file: DRF.data
(PID.TID 0000.0001)  MDS_WR_REC_RS: iRec,Dim =         1         15
(PID.TID 0000.0001)  MDS_WRITEVEC_LOC: open file: PHrefF.data
(PID.TID 0000.0001)  MDS_WR_REC_RS: iRec,Dim =         1         16
(PID.TID 0000.0001)  MDS_WRITEVEC_LOC: open file: PHrefC.data
(PID.TID 0000.0001)  MDS_WR_REC_RS: iRec,Dim =         1         15
(PID.TID 0000.0001)  MDS_READ_FIELD: opening global file: Uvel.0005184000
(PID.TID 0000.0001)  MDS_READ_FIELD: opening global file: Vvel.0005184000
(PID.TID 0000.0001)  MDS_READ_FIELD: opening global file: Theta.0005184000
(PID.TID 0000.0001) // =======================================================
(PID.TID 0000.0001) // Field Initial Temperature at iteration          1
(PID.TID 0000.0001) // CMIN =         -1.944865107536316E+00
(PID.TID 0000.0001) // CMAX =          3.024649810791016E+01
(PID.TID 0000.0001) // CINT =          1.192272711683203E+00
(PID.TID 0000.0001) // SYMBOLS (CMIN->CMAX): -abcdefghijklmnopqrstuvwxyz+
(PID.TID 0000.0001) //                  0.0: .
(PID.TID 0000.0001) // RANGE I (Lo:Hi:Step):(     1:   128:     1)
(PID.TID 0000.0001) // RANGE J (Lo:Hi:Step):(    64:     1:    -1)
(PID.TID 0000.0001) // RANGE K (Lo:Hi:Step):(   1:   1:   1)
(PID.TID 0000.0001) // =======================================================
(PID.TID 0000.0001) K =   1
(PID.TID 0000.0001)                I=10      I=20      I=30      I=40      I=50      I=60      I=70      I=80      I=90      I=100     I=110     I=120
(PID.TID 0000.0001) |--J--|123456789|123456789|123456789|123456789|123456789|123456789|123456789|123456789|123456789|123456789|123456789|123456789|12345678
(PID.TID 0000.0001)     64 ................................................................................................................................
(PID.TID 0000.0001)     63 ................................................................................................................................
(PID.TID 0000.0001)     62 ................................................................................................................................
(PID.TID 0000.0001)     61 ------...-----------.......................................................................................................-----
(PID.TID 0000.0001)     60 ----.....-----------.................................................................................-....................------
(PID.TID 0000.0001)     59 abbcccbaaaaaa----aa.................................................................................ba---aa..............-------
(PID.TID 0000.0001)     58 cddddddddccbbbbbbb.....................................................................................--aab............-aaa-aab
(PID.TID 0000.0001)     57 eeeee....................................................................................................baa............bbbbabcd
(PID.TID 0000.0001)     56 ggff......................................................................................................--........ddeee..ccdef
(PID.TID 0000.0001)     55 hh..............................................................aa.......................................a---.....fgghhhihgfghhh
(PID.TID 0000.0001)     54 h............................................................ccbbbcc......................................a--bb..efghhiiijjijjii
(PID.TID 0000.0001)     53 hh.................................................bbbc...cccccccdddd.....ghhii...........................-aabcddegghhiijjjjj...
(PID.TID 0000.0001)     52 ii................................................cbbcc...ccdddddeeee.ffgggghhij............................abcddegghijjjjkk....
(PID.TID 0000.0001)     51 ...................................................bbcc..cdddddeeeeeffffgggghhijjk..........................abcgggfghijjjkkk....
(PID.TID 0000.0001)     50 ...................................................bbcccccddeeeefffffffggghhhhijjkl..........................bciiiiijkkllkklll..
(PID.TID 0000.0001)     49 ...................................................cccccddeeeffggggggghhhiiijjjjkklm..........................eekkkklllmmlllmll.
(PID.TID 0000.0001)     48 ....................................................hhfdeeffgghhhiiihiiijjkkkkllllmm.....................ggggghklmmmnnnnmmmmmmm.
(PID.TID 0000.0001)     47 ...................................................jlmlkjjjjjjjjjjkkjjkklllmmmmmmmmm...................jmmllmknoooooooonnnnnm...
(PID.TID 0000.0001)     46 ..................................................knooonnmmmmmmmmlllllmmnnnnoooononm..................noopppppqqqqpppooooooon...
(PID.TID 0000.0001)     45 ..................................................oqqqqppoooooonnnnnnnoooppppppppponm................qssstsssrrrrqqqqqppppppo...
(PID.TID 0000.0001)     44 .............................................o.qrprssrrqqqpppppppppppqqqqrrrrqqqqpponn..............suutttssssrrrrrrrrrqqqqp....
(PID.TID 0000.0001)     43 ............................................psssttutsrrrrrssssssrrsssssssssssrrqqqqppop............tuuutttstttttttttsssrrrqq....
(PID.TID 0000.0001)     42 ...........................................rsuuuvutttttuuuuuuuutttutttttttttsssrrqqqqqp............uvvuuuuuuuuuuuuuuttttssr.....
(PID.TID 0000.0001)     41 .....................vw.....................uvuuvvvvvwwwwvvvvvvuuvvuuuuuuutttsssrrrrrrrsuv.......vvvvvvvvvvvvvvvvvvuuuuttr......
(PID.TID 0000.0001)     40 .....................vww.................uuvvvvwwwwwxxxxwwwvvvvvvvvvvvvvuuuuutttsssssstuvv.......xxx.wwvvvwwwwwwvvvvvuutsr......
(PID.TID 0000.0001)     39 ....................vwwww.....xxx.......vvvvwwwwxxxxxxxxwwwwwwwwwwwvvvvvvvvvvuuuutttuuvvwwx......xxxxx.wwwwwwwwwwwvvvvuuts......
(PID.TID 0000.0001)     38 ...................wwwxxxx...xxxxx.....wwww.xxxxxxxxxxxxwwwwwwwwwwwwwwwwwwvvvvvvvuuvvvwwxxxyxw.....xxwwwwwwwwwwwwwwwvvvuut......
(PID.TID 0000.0001)     37 ................wwwxwxxyyy..yyxxxxx....wwxx.yyyyyyxxxxxxwwwwwwxxxxwwwwwwwwwwwvvvvvvvvwxxxxxxxwvw...yxwwvvvwxxxxxxwwwwwvvuu......
(PID.TID 0000.0001)     36 ..................wxxxyyyyy.yyxxxxx....xxx...yyyyyyyxxxxxxwwxxxxxxxxxxxxxxxxwwwwwwwwwxxxxxxwwvvuuv.yy......xxxxxxxxxwxwwwv......
(PID.TID 0000.0001)     35 ..................wwwxxyyyyxyxxxxxx....yy....zyzzzzyyyxxxxxxxxxyyyxxxxxxxxxxxxxxxxxxxxyxxxxwwwvvvvw.........xxxxxxxxxxyxxxxx....
(PID.TID 0000.0001)     34 wwx..............xxxxxyyyyyyxxyyyy........zzzzzzzzzzzzyyyyyyyyyyyyyyyyxxxxxxxxxxxxxxxxxxxxwwwwwwwwwv..........xxxxxxxyyyyyyxwvvw
(PID.TID 0000.0001)     33 www.............yyyyyyzzzzzzzzzzzz.........zzz+++++++zzzzzzyyyyyyyxxxxxxwwwwwwwwvvvvvvvvvvvvvvvvvvvv...........yxxxxxxxxxxxxwwww
(PID.TID 0000.0001)     32 wwv............yxxxyyyyzzzz+++++++z.........zz..z++++++zzzzzzyyyyyyyyyxxxxxwwwwwwvvvuvvvvvvuuuuuuvu..............xxxwwwwwwwwvvww
(PID.TID 0000.0001)     31 vvuu..........yyyyyyyzzzzzzzz++++++z........zzz.....+.+++++++zzzzzzzzzzyyyyyyxxxxxwwwwwwwwvvvuuuuuu................yxxwxwwwvvvvv
(PID.TID 0000.0001)     30 uuut..........yzzzzzzzzzzzzzzzz+++zzzy...zzyzzyyx....z+.z+++++zzzz+zzzzzzzzzzyyyyyyxxxxxwwwvvvvvvuu................yxxxxwwwvvvvv
(PID.TID 0000.0001)     29 uuutt.........yyyyyzzzzyyxxyyyzzzzzyyyyyzzzzzzyxyy.y..zzzzzzzzzzzzzzzzzzzzzzzzyyyyyyyxxwwwvvuuuuutts...............xxxxwwwvvvuuu
(PID.TID 0000.0001)     28 ttttt.........yzz.yyzyyxxxxxyyyyyyyxyyzzz++zzz.....yyyyyzzzzzzzzzyyyyyyyyyzzzyyyyyyxxxwwvvuuutttsssr..............xxxxwwwvvuuutt
(PID.TID 0000.0001)     27 stts..........zz..xyyyxxxwxxxxxyxxxwxxyyzzzz........yyyyyyyyyyyyyyyyyyyyyyyyyyxxxxxxxwwvvuuutttssssrq.............wxxwwvvvuuutts
(PID.TID 0000.0001)     26 sssr..........yy..xxxxxwwwwxxwwwwwwvwwwxxyy..........xyyxxxxxxxxxxxxxxxxxxxxxxxxxxxxwwwvvuuuutttsssrrq............xxxwwvvvuuutts
(PID.TID 0000.0001)     25 ssrq.........xxy.wxxwwwwvvvwwvvvvvvuuuuvw.............xxwwwwwwwwwwwwwwwwwwwwwwwwwwwwwwvvvvvvuuttssrrrqq...........xxxwwvvvuuutts
(PID.TID 0000.0001)     24 ssrqo.......wwww.wwwwvvvvvvvvuuuuuuutttt..............vwvvvvvvvvvvvvvuuuuvvvvvvvvvvvvvvvvvvuuuttssrrqqp..........uwwwwvvvuuuutts
(PID.TID 0000.0001)     23 srrpn.......vvvvvvwvuuuuuuuuutttttttssss..............vwvuuuuuuuuuuuttttttuuuuuuuuuvvvvvvvuuuuttssrrqpn........uuvwvvuuuuuuuttss
(PID.TID 0000.0001)     22 rrqqpn.....uvuuuuvutttttttssssrrrrrrrrrss.............uvutttttttttsssssstsssttttttttuuuuuutttttssrrqpon........uvvuutttttsttssss
(PID.TID 0000.0001)     21 qqqppn.....tuttttttssssrrrrrqqqqqqqqqqrrr....qp.......tttssrrrstssrrrqrrrrrrrrrrrrrrssssssssssrrrqqppnm.......suuttsssssrrsssrrr
(PID.TID 0000.0001)     20 ppooppp.qrrtutssssrrrrrrqqqqpppooooooopqrqqqpppp......rrrrqqq.rrrrqqqppppppppppppppqqqqqrrrqqqqqppppom.......qstssrrrrqqqqqrqqqq
(PID.TID 0000.0001)     19 nnmmnopppppstssssrrrqqqqqqpppoonnnnnmmnoppoooooooo...pppppppp..rrqqqppooooooooooooooooopppppppoooooonl......moqrrqqpppppoopppooo
(PID.TID 0000.0001)     18 llkkllmmmmlmnnnoooonnnnoooppoonnmmmlllllmmnnmmmmnnn..oonnnooo..ppppppooonnnnnnnnnnnnnnnnnnnnnnnnmmmmml......kmnnnnmmmnnnmmnnnnmm
(PID.TID 0000.0001)     17 jjjjjjiiiiiiiiiijjjiijjjkllmnnmmllkkkkkkkklllllllmmnnnmmmmnn..mmnmnnnnnnmmmmmmmmmmmlllmmmmlllllllllllk...lkkjkkllkkkkkkkkkklkkkj
(PID.TID 0000.0001)     16 hhhhhggggggghggggggggghhhhijjkkkkjjjjjjjjjjjkkkkkklmmlllllm..lllkkkllmmmllllllllkkkkkkkkkkkkkkkkjklkk....kjiiiijjiiiiiiiiiiihhhh
(PID.TID 0000.0001)     15 eefffeeeeeefffeeeeffffgg.ffghhiiiiiiiihhhiiiiijjjjjjjjkkkkkkkjjjjjjkkkkkkkkkkjjjjjjjjjjjjjjjjjjiijjjk....jjihhggggffgggggggffeee
(PID.TID 0000.0001)     14 cdddddddddddedddddeeeeffffeddeffggggggggggghhhhhhggghhhiiijjiihhhhiijjjiiiiiihhhhhhhhiiiiiiiiiiihhhijj..ijjiggfeedddeeeeeeeedddc
(PID.TID 0000.0001)     13 bbccccccccccdddccdddddeeeeddcccddeeeeeefffffgggfffffffgggghhhgggggghhhhhgggffffffffggggghhhhhhhhhhhhhiiiiiihgfeedcccddddcccccbbb
(PID.TID 0000.0001)     12 bbbbbbbbbbbcccccccccccccccccbbccccdddddddeeefffeeeeeeeeeeeffffffefffffffeeeddddeeeeeeeeeeffffggffggggggggfffeeddccbbcccbbbbbbbbb
(PID.TID 0000.0001)     11 bbbaaaabbbbbbbbbbbbbbbbbcccbbbbbbccccccddddddddddddccccccddddddddddddddddccccccccccdddddddddeeeeeeeeeeedddccccccbbbbbbbbbbbbbbbb
(PID.TID 0000.0001)     10 bbbbbbbbaabbbbbbbbbaabbbbbbbbbbbbbbaabbbccccccccccbbbbbbbccccccccccccccccbbbbbbbbbbbcccbbbbccccbccccccbbbb..bccbbbbbaabbaaabbbbb
(PID.TID 0000.0001)      9 bbbbbbbbaaaabbbaaa..aaabbbbbaaaaa........bbbaa...aaaaaaabbbbbbbbbbbbbbbbbbbaaaaaaaaaaaaaaaaaaaaaabbbbbaa...aabbbbbbbbbbbaabbbbbb
(PID.TID 0000.0001)      8 bbbaaaaaaaa..............aa.............................aa--aaaabbbaaabbaaaaaaaaaaaaaaaaaaaa---aaabaaa....a-abbbbbbbbbbbaabbbbbb
(PID.TID 0000.0001)      7 .............................................................aaaaaaaaaaaaaaaaaa-------aaaaa----aaaaaa......-aabbbbaaaaaaaaaa....
(PID.TID 0000.0001)      6 ...........................................................--abbbaa--------------.........................---aabbbaa----........
(PID.TID 0000.0001)      5 ............................................................abbccbba-----.................................aaaa..aa--............
(PID.TID 0000.0001)      4 ................................................................................................................................
(PID.TID 0000.0001)      3 ................................................................................................................................
(PID.TID 0000.0001)      2 ................................................................................................................................
(PID.TID 0000.0001)      1 ................................................................................................................................
(PID.TID 0000.0001) // =======================================================
(PID.TID 0000.0001) // END OF FIELD                                          =
(PID.TID 0000.0001) // =======================================================
(PID.TID 0000.0001) 
(PID.TID 0000.0001)  MDS_READ_FIELD: opening global file: Salt.0005184000
(PID.TID 0000.0001) // =======================================================
(PID.TID 0000.0001) // Field Initial Salinity at iteration          1
(PID.TID 0000.0001) // CMIN =          3.148459053039551E+01
(PID.TID 0000.0001) // CMAX =          3.755685424804688E+01
(PID.TID 0000.0001) // CINT =          2.248986562093099E-01
(PID.TID 0000.0001) // SYMBOLS (CMIN->CMAX): -abcdefghijklmnopqrstuvwxyz+
(PID.TID 0000.0001) //                  0.0: .
(PID.TID 0000.0001) // RANGE I (Lo:Hi:Step):(     1:   128:     1)
(PID.TID 0000.0001) // RANGE J (Lo:Hi:Step):(    64:     1:    -1)
(PID.TID 0000.0001) // RANGE K (Lo:Hi:Step):(   1:   1:   1)
(PID.TID 0000.0001) // =======================================================
(PID.TID 0000.0001) K =   1
(PID.TID 0000.0001)                I=10      I=20      I=30      I=40      I=50      I=60      I=70      I=80      I=90      I=100     I=110     I=120
(PID.TID 0000.0001) |--J--|123456789|123456789|123456789|123456789|123456789|123456789|123456789|123456789|123456789|123456789|123456789|123456789|12345678
(PID.TID 0000.0001)     64 ................................................................................................................................
(PID.TID 0000.0001)     63 ................................................................................................................................
(PID.TID 0000.0001)     62 ................................................................................................................................
(PID.TID 0000.0001)     61 kllmmm...jjjjjjjjjjj.......................................................................................................dfgij
(PID.TID 0000.0001)     60 mnnn.....lllllllllll.................................................................................f....................cegikl
(PID.TID 0000.0001)     59 ooooooonnnnnnnnnnnm.................................................................................fffgggg..............fgijlmn
(PID.TID 0000.0001)     58 ppppooonoooooonnnn.....................................................................................eeffg............hijlmnoo
(PID.TID 0000.0001)     57 pppon....................................................................................................dfg............kllmnoop
(PID.TID 0000.0001)     56 ppom......................................................................................................eh........kmnnn..ooppp
(PID.TID 0000.0001)     55 po..............................................................cc.......................................fgij.....oooqqqqppppqqq
(PID.TID 0000.0001)     54 p............................................................ffedcb-......................................ijkji..mopqqqqrrrqqqqq
(PID.TID 0000.0001)     53 on.................................................eeff...fffggggfeca.....bcccb...........................hikmmmmnppqqqqrrrrq...
(PID.TID 0000.0001)     52 on................................................cdeff...ffgggggggfd.acdddeeedc............................ikmnnnpppqqqqrrq....
(PID.TID 0000.0001)     51 ...................................................bdef..ffgggggggffeddeeeeeeeedcb..........................eikoppoopppqqqqq....
(PID.TID 0000.0001)     50 ...................................................cdfffffggffffffffeeeeeeeeeeeddcb..........................fhopppqqrrrrrrrqq..
(PID.TID 0000.0001)     49 ...................................................defffffggffggggffffffffeeeeeeddcb..........................hiqrrrsssssssrrrr.
(PID.TID 0000.0001)     48 ....................................................kkiggggghhhhhhhhhgggggffffffeddd.....................ffikjkqrsttttttsssssrr.
(PID.TID 0000.0001)     47 ...................................................mmmmllllkkkjjjjjjjjiiiihhhhhgfeee...................noqqqrostuuuuuutttttss...
(PID.TID 0000.0001)     46 ..................................................mnnnnnnnmmmmmmllkkkkkkkkjjjjjihffg..................tuuvvvvvvwwwvvuuuuuuuut...
(PID.TID 0000.0001)     45 ..................................................nnnoonnnnnnnnmmmmmmmmmmmmmmllkihggh................uvvwwwwwwwwwwvvvvvvvvvvv...
(PID.TID 0000.0001)     44 .............................................j.nnnnnoooonnnnnnnnnnnnooooooppponmljhhhi..............vwwwwwwwwwwvvvwwwwwxwwww....
(PID.TID 0000.0001)     43 ............................................jmnnooooooooooooppppppppppqqqqqqqqponljiiij............vvvwwwwwwxxxxxxxyyyyyyxww....
(PID.TID 0000.0001)     42 ...........................................kmnoooooooopppppqqqqqqqqqqqqqqqqrrqqpomlkjjj............vvvvwwxxxxyyzzzzzzzzzyxw.....
(PID.TID 0000.0001)     41 .....................wv.....................mnonooooppppqqqqqqqqqqqqqqqqqqqqqppponmllkklno.......vuuvvvuvwwwxyz+++++zzyyxw......
(PID.TID 0000.0001)     40 .....................uvv.................jkmmnnnoooooooppppqqpppppppppppppooooooonnnmmlmmn.......uuu.vussttuvxyzzzzyyyxxwv......
(PID.TID 0000.0001)     39 ....................ttuvu.....fff.......jjjmmmnnnnooooooooooooooooooooooonnnnnnnnnmnnmmmmmm......uuutt.rqrrsuwxxxxxxxwwvut......
(PID.TID 0000.0001)     38 ...................tstuvus...ghgeb.....jiii.lmmmmnnnnnnnnnnnnnnnnnnnnnnnmmmmmmmllllllllkllllkl.....tssrqqrsstuvvwwvvvvutss......
(PID.TID 0000.0001)     37 ................vussstuvus..ijjhecc....iiii.llmmmmmmmmmmmmmmmmmmnmmmmmmmlllllllllkkkkjjjjkkkkkkk...tttttsssrrsstttttuttsrq......
(PID.TID 0000.0001)     36 ..................rssuuutqo.jkjhfee....hhh...lllllllllllllllmmmmmmmmmmlllllllllllkkjjjjjjjjjkkllkk.pr......qqrrsrrssssssrq......
(PID.TID 0000.0001)     35 ..................rrstttrpnmlmkihgf....gg....kllllkllllllklllmmmmmmmmmmmmmmmmmmmmlkkkkkjjjjjjkkkkig.........qrstssssrrrrqqpm....
(PID.TID 0000.0001)     34 pni..............rrrstttsqponnmkji........kklllllllllllllllmmnnnnnnnnnnnnnnnnnnmmmlllllkkkjjjjjjjigf..........rttstsrrrqqppopppp
(PID.TID 0000.0001)     33 qol.............qqqrrssssrrqppomlj.........klllllllmmmllllmnnoooppppppppooooonnnnmmmmmmmllllkkkkjihg...........rttuttsssssrrrrqq
(PID.TID 0000.0001)     32 qpn............qqqqqrrrrrqqqpponmkj.........ll..lllmmmmmmmnnoopqqqqqqqqqqqqpppooooonnnnnnnnmmmmmlkj..............tuuutttssssssrr
(PID.TID 0000.0001)     31 rqpo..........qqqqqqqrrrqqppoooomkjk........llm.....l.nnmmnnopqqrrrrrrrrrrrrqqqppppppppooooonoonnmm................ttttttttsssss
(PID.TID 0000.0001)     30 srqp..........qqqppppqqpppoooonnmkkllk...kllllmml....mn.nmmnoppqqqrrrrrrrrrrrrrrqqqqqqqqqqqpppppppo................vuuuuttttttts
(PID.TID 0000.0001)     29 tssrr.........pppppppppoooonnnmmllllmmmmmlmmmmmmmn.o..oonnnnoppoppqqqrrrrrrrsssssrrrrrrrrrqqqqrrqqqp...............wvvuuuuuuuuut
(PID.TID 0000.0001)     28 uttss.........ppp.popoooooonnmmllmmmmmmmmmnnno.....pppoonnnoopppppqrrrrssssstttttttsssssssrssssrrqpp..............yxxwvvvvvvvvvu
(PID.TID 0000.0001)     27 ttss..........pp..pppoooooonnnmmmmnnnnnnnnno........ppooooooopppqqrrrssssstttuuuuuuuuttttttttssrrqpoo.............yyyyxxxxwwwvvu
(PID.TID 0000.0001)     26 tssr..........pp..pppoooooooonnnnnooooooopp..........ppppppppppqqrrrrssssttttuuuuuuuvvvuuutttssrrqqpoo............yyzyyyyxxwvvuu
(PID.TID 0000.0001)     25 ssrq.........qqq.pppppppppppppppppppppppq.............ppqqqqqqqqqrrrrrsssstsstttuuuuvvvvuuuutssrrqpoooo...........yyyyyxxxwvvuut
(PID.TID 0000.0001)     24 srqpp.......qqqq.ppqqqqqqqqqqqqqqqrrrrrq..............qqrrrrrqqrrrrrrrrrssssrrssstuuuvuuutuutsrrqpoonnn..........wyxwwwwwwvvvuut
(PID.TID 0000.0001)     23 ssrqo.......qqqqppqrrrrrsssssssssssssssr..............qqrrrrrrrrrrrrrrrrrrrrrrrrrsstttttttttsrrqpponmmm........uvwxvuuuvvvuuuttt
(PID.TID 0000.0001)     22 ssrrqo.....qqqqqqqrssssssstsssssssttttsss.............rrrrrrrssssrrrrrrrrrrrrqqqqqrrrrrrrrrqqqpooonmllm........uwwvuttttttttssss
(PID.TID 0000.0001)     21 rrrrqp.....qrrrrrrrsrrrssssrrrrrrrrssssss....tt.......rrrrrrrrssrrrrrrqqqqqqqqqqppppqqpppooooonnmmmllll.......svvuttsssssrrrrssr
(PID.TID 0000.0001)     20 qqpqqqq.qrqqrrrrrrrrrrrrrrrrrqqqpppqqrssssssrrrr......rrrrrrr.rrrrrqqqqqqqppppppoooooonnnnmmmmmllllkkk.......osuuttssssrrrqqqqqq
(PID.TID 0000.0001)     19 ooooopqqqqrrrrrrrrrrqqqrrrrrqqqpppooopqqrqqqqppqqq...rqqqqqqq..rrrrqqqppppoonnnnnmmmmmmmmlllkkklkkkkjj......knqsssrrrrqqqqqpppoo
(PID.TID 0000.0001)     18 nmmmnnopppppppoooooooooppqrrqqppooooooooooooooooppq..ppppppqp..qqqqqqqppooonnnmmmmllllllllkkkkkkkkkjji......lmnooooooooooooooonn
(PID.TID 0000.0001)     17 mlllllmmmmmmllkkkkkkkklllmnopppoononnnnnnnnnnnnnnooooooooopo..nnnnopppooonnnnnmmmmmlllllllllkkkkkkkjig...ijkklmmmmmmmmmmmmmmmmmm
(PID.TID 0000.0001)     16 kkkkkkkkkkkkkkkkkjjjjkkkkklmmnnnnnnnnmmmmmmmmmmmmmmnnnnnnnn..mmmmmmnnnnnnmnnnmmmmmmmmmllllllllllkkkji....ijklllllllllllkkkkkkkkk
(PID.TID 0000.0001)     15 kkkkkkkkkkkkkkkkkkjjkkkj.kkklmmmmmmmmmmllllllllllllllmmmmmnmmmllllmmmmmmmmmmmmmllmmmmllllllllllllkkkj....ijkkklkkkkkkkkkkkkkkkkk
(PID.TID 0000.0001)     14 kkkkkkkkkkkkkkkkkkkkkkkkjjjkkkllllllllllllllllllllllllllllmmmllllllllllllllllllllllllllllllllllllllllh..hijkkkkkkkkkkkkkkkkkkkkk
(PID.TID 0000.0001)     13 kklllllkkkkkjjkkkkkkkkkkkkkkkkkkllllllllllllllkkkkkkkkkkkkllllllkkkkkkkkkkkkkkkkkllllllllllllllllllllkjjjkkkkkkkkkkkkkkkkkkkkjkk
(PID.TID 0000.0001)     12 lllllkkkkkjjjjjkkjjkkjjjkkkkkkkkkklllllllllkkkkkkkkkkkkkkkkkkkkkkjjjjjkkkkkkkkkkkkkkkkkkkllllllllllllllllkkkkkkkkkkkkkkkkkkkkkkl
(PID.TID 0000.0001)     11 llllkkkkkkjjjkkkkkkkkkkkkjkkkkkkkkkkkkkkkkkkkkkkkkkkkkkkkkkkkkkkkkjjjkkkkllllkkkkkkkkkkkkkkkkkkkkkkkkkkkkkkkklllllllllkkkkklllll
(PID.TID 0000.0001)     10 mllllkkkkkkkkkkkkkkkkkkkkkkkkkkkkkkkkkkkkllllkkkkkkkkkkkllllllllkkkkkkkklkkkkkkkkkkkkkkkkkkkkkkkjkkkkkkjjj..mmllllllllllllllmmmm
(PID.TID 0000.0001)      9 lllllllkkkkkkkkkkk..kkkkkkkkkkkkk........kkkkk...kkkkkkllllllllllllllkkkkkkkkkkkkkkkjjjjjjjjjjjjjjjjjjjj...lmmllllmmllllllllmmmm
(PID.TID 0000.0001)      8 llllkkkkkkk..............kk.............................mlllllllllllllkkkjjjjjjjjjjjjjjjjjjjjjjijjjjjj....klmmllllllllllllllllll
(PID.TID 0000.0001)      7 .............................................................lllllkkkkkkkkjjjjjjjjkkkkkjjjjiiiiiiijjj......mmlllllllllllllll....
(PID.TID 0000.0001)      6 ...........................................................mmmlllllkkkkkkkkkkkkkk.........................lmmmmmmmllllll........
(PID.TID 0000.0001)      5 ............................................................mmmllllllllll.................................lmmm..llll............
(PID.TID 0000.0001)      4 ................................................................................................................................
(PID.TID 0000.0001)      3 ................................................................................................................................
(PID.TID 0000.0001)      2 ................................................................................................................................
(PID.TID 0000.0001)      1 ................................................................................................................................
(PID.TID 0000.0001) // =======================================================
(PID.TID 0000.0001) // END OF FIELD                                          =
(PID.TID 0000.0001) // =======================================================
(PID.TID 0000.0001) 
(PID.TID 0000.0001)  MDS_READ_FIELD: opening global file: Eta.0005184000
(PID.TID 0000.0001) Start initial hydrostatic pressure computation
(PID.TID 0000.0001) Pressure is predetermined for buoyancyRelation OCEANIC
(PID.TID 0000.0001) 
(PID.TID 0000.0001)  write diagnostics summary to file ioUnit:      6
Iter.Nb:         0 ; Time(s):  0.0000000000000E+00
------------------------------------------------------------------------
2D/3D diagnostics: Number of lists:     1
------------------------------------------------------------------------
listId=    1 ; file name: surfDiag
 nFlds, nActive,       freq     &     phase        , nLev               
   10  |   10  |    172800.000000         0.000000 |   1
 levels:   1
 diag# | name   |   ipt  |  iMate | kLev|   count |   mate.C|           
    23 |ETAN    |      1 |      0 |   1 |       0 |
    24 |ETANSQ  |      2 |      0 |   1 |       0 |
    25 |DETADT2 |      3 |      0 |   1 |       0 |
    73 |PHIBOT  |      4 |      0 |   1 |       0 |
    74 |PHIBOTSQ|      5 |      0 |   1 |       0 |
   305 |DICTFLX |      6 |      0 |   1 |       0 |
   306 |DICOFLX |      7 |      0 |   1 |       0 |
   307 |DICCFLX |      8 |      0 |   1 |       0 |
   308 |DICPCO2 |      9 |      0 |   1 |       0 |
   309 |DICPHAV |     10 |      0 |   1 |       0 |
------------------------------------------------------------------------
Global & Regional Statistics diagnostics: Number of lists:     0
------------------------------------------------------------------------
(PID.TID 0000.0001)  MDS_READ_FIELD: opening global file: DIC.0005184000
(PID.TID 0000.0001)  MDS_READ_FIELD: opening global file: Alk.0005184000
(PID.TID 0000.0001)  MDS_READ_FIELD: opening global file: PO4.0005184000
(PID.TID 0000.0001)  MDS_READ_FIELD: opening global file: DOP.0005184000
(PID.TID 0000.0001)  MDS_READ_FIELD: opening global file: O2.0005184000
 DIC_SURFFORCING_INIT, it=         0 : Reading new data, i0,i1=   12    1
(PID.TID 0000.0001)  MDS_READ_FIELD: opening global file: sillev1.bin
(PID.TID 0000.0001)  MDS_READ_FIELD: opening global file: sillev1.bin
 QQ: pCO2 approximation method
 QQ first guess pH   8.1721270142743645        19.863307952880859        35.595417022705078        1.9654943943023682        1.7932390619534999E-004   4.2288308031857014E-003   2.3079438209533691     
 QQ: pCO2 approximation method
 QQ first guess pH   8.1444206831815293        17.787647247314453        34.775051116943359        1.9635703563690186        1.2285396223887801E-004   3.4407726489007473E-003   2.2587993144989014     
 QQ: pCO2 approximation method
 QQ first guess pH   8.0000000000000000        0.0000000000000000        0.0000000000000000        0.0000000000000000        0.0000000000000000        0.0000000000000000        0.0000000000000000     
 QQ: pCO2 approximation method
 QQ first guess pH   8.0000000000000000        0.0000000000000000        0.0000000000000000        0.0000000000000000        0.0000000000000000        0.0000000000000000        0.0000000000000000     
(PID.TID 0000.0001) // =======================================================
(PID.TID 0000.0001) // Field Current HEFFM    at iteration          0
(PID.TID 0000.0001) // CMIN =          1.000000000000000E+00
(PID.TID 0000.0001) // CMAX =          1.000000000000000E+00
(PID.TID 0000.0001) // CINT =          0.000000000000000E+00
(PID.TID 0000.0001) // SYMBOLS (CMIN->CMAX): -abcdefghijklmnopqrstuvwxyz+
(PID.TID 0000.0001) //                  0.0: .
(PID.TID 0000.0001) // RANGE I (Lo:Hi:Step):(    -3:   132:     1)
(PID.TID 0000.0001) // RANGE J (Lo:Hi:Step):(    68:    -3:    -1)
(PID.TID 0000.0001) // RANGE K (Lo:Hi:Step):(   1:   1:   1)
(PID.TID 0000.0001) // =======================================================
(PID.TID 0000.0001) // =======================================================
(PID.TID 0000.0001) // END OF FIELD                                          =
(PID.TID 0000.0001) // =======================================================
(PID.TID 0000.0001) 
(PID.TID 0000.0001) // =======================================================
(PID.TID 0000.0001) // Field Current seaiceMaskU at iteration          0
(PID.TID 0000.0001) // CMIN =          1.000000000000000E+00
(PID.TID 0000.0001) // CMAX =          1.000000000000000E+00
(PID.TID 0000.0001) // CINT =          0.000000000000000E+00
(PID.TID 0000.0001) // SYMBOLS (CMIN->CMAX): -abcdefghijklmnopqrstuvwxyz+
(PID.TID 0000.0001) //                  0.0: .
(PID.TID 0000.0001) // RANGE I (Lo:Hi:Step):(    -3:   132:     1)
(PID.TID 0000.0001) // RANGE J (Lo:Hi:Step):(    68:    -3:    -1)
(PID.TID 0000.0001) // RANGE K (Lo:Hi:Step):(   1:   1:   1)
(PID.TID 0000.0001) // =======================================================
(PID.TID 0000.0001) // =======================================================
(PID.TID 0000.0001) // END OF FIELD                                          =
(PID.TID 0000.0001) // =======================================================
(PID.TID 0000.0001) 
(PID.TID 0000.0001) // =======================================================
(PID.TID 0000.0001) // Field Current seaiceMaskV at iteration          0
(PID.TID 0000.0001) // CMIN =          1.000000000000000E+00
(PID.TID 0000.0001) // CMAX =          1.000000000000000E+00
(PID.TID 0000.0001) // CINT =          0.000000000000000E+00
(PID.TID 0000.0001) // SYMBOLS (CMIN->CMAX): -abcdefghijklmnopqrstuvwxyz+
(PID.TID 0000.0001) //                  0.0: .
(PID.TID 0000.0001) // RANGE I (Lo:Hi:Step):(    -3:   132:     1)
(PID.TID 0000.0001) // RANGE J (Lo:Hi:Step):(    68:    -3:    -1)
(PID.TID 0000.0001) // RANGE K (Lo:Hi:Step):(   1:   1:   1)
(PID.TID 0000.0001) // =======================================================
(PID.TID 0000.0001) // =======================================================
(PID.TID 0000.0001) // END OF FIELD                                          =
(PID.TID 0000.0001) // =======================================================
(PID.TID 0000.0001) 
(PID.TID 0000.0001)  MDS_READ_FIELD: opening global file: Heff.0005184000
(PID.TID 0000.0001)  MDS_READ_FIELD: opening global file: Area.0005184000
(PID.TID 0000.0001) // =======================================================
(PID.TID 0000.0001) // Model current state
(PID.TID 0000.0001) // =======================================================
(PID.TID 0000.0001) 
(PID.TID 0000.0001) // =======================================================
(PID.TID 0000.0001) // Begin MONITOR dynamic field statistics
(PID.TID 0000.0001) // =======================================================
(PID.TID 0000.0001) %MON time_tsnumber                =                     0
(PID.TID 0000.0001) %MON time_secondsf                =   0.0000000000000E+00
(PID.TID 0000.0001) %MON dynstat_eta_max              =   9.6649301052094E-01
(PID.TID 0000.0001) %MON dynstat_eta_min              =  -1.4782940149307E+00
(PID.TID 0000.0001) %MON dynstat_eta_mean             =   8.2173133355469E-11
(PID.TID 0000.0001) %MON dynstat_eta_sd               =   5.6496543245902E-01
(PID.TID 0000.0001) %MON dynstat_eta_del2             =   1.1653645959361E-03
(PID.TID 0000.0001) %MON dynstat_uvel_max             =   1.8991956114769E-01
(PID.TID 0000.0001) %MON dynstat_uvel_min             =  -2.3830120265484E-01
(PID.TID 0000.0001) %MON dynstat_uvel_mean            =   1.8631910434304E-03
(PID.TID 0000.0001) %MON dynstat_uvel_sd              =   1.3097544587911E-02
(PID.TID 0000.0001) %MON dynstat_uvel_del2            =   4.9141243639480E-05
(PID.TID 0000.0001) %MON dynstat_vvel_max             =   1.4902608096600E-01
(PID.TID 0000.0001) %MON dynstat_vvel_min             =  -2.1740870177746E-01
(PID.TID 0000.0001) %MON dynstat_vvel_mean            =  -1.6712179519139E-04
(PID.TID 0000.0001) %MON dynstat_vvel_sd              =   7.3032187183207E-03
(PID.TID 0000.0001) %MON dynstat_vvel_del2            =   3.8048381037259E-05
(PID.TID 0000.0001) %MON dynstat_wvel_max             =   5.2278893557483E-05
(PID.TID 0000.0001) %MON dynstat_wvel_min             =  -5.4363646963699E-05
(PID.TID 0000.0001) %MON dynstat_wvel_mean            =  -3.1461805796597E-23
(PID.TID 0000.0001) %MON dynstat_wvel_sd              =   2.6044092398924E-06
(PID.TID 0000.0001) %MON dynstat_wvel_del2            =   1.7768952245668E-08
(PID.TID 0000.0001) %MON dynstat_theta_max            =   3.0246498107910E+01
(PID.TID 0000.0001) %MON dynstat_theta_min            =  -3.4675359725952E+00
(PID.TID 0000.0001) %MON dynstat_theta_mean           =   3.8021139721315E+00
(PID.TID 0000.0001) %MON dynstat_theta_sd             =   4.5122610081527E+00
(PID.TID 0000.0001) %MON dynstat_theta_del2           =   2.5990297133673E-03
(PID.TID 0000.0001) %MON dynstat_salt_max             =   3.7556854248047E+01
(PID.TID 0000.0001) %MON dynstat_salt_min             =   3.1484590530396E+01
(PID.TID 0000.0001) %MON dynstat_salt_mean            =   3.4614647723372E+01
(PID.TID 0000.0001) %MON dynstat_salt_sd              =   3.1408724491432E-01
(PID.TID 0000.0001) %MON dynstat_salt_del2            =   4.0546884730967E-04
(PID.TID 0000.0001) %MON forcing_qnet_max             =   0.0000000000000E+00
(PID.TID 0000.0001) %MON forcing_qnet_min             =   0.0000000000000E+00
(PID.TID 0000.0001) %MON forcing_qnet_mean            =   0.0000000000000E+00
(PID.TID 0000.0001) %MON forcing_qnet_sd              =   0.0000000000000E+00
(PID.TID 0000.0001) %MON forcing_qnet_del2            =   0.0000000000000E+00
(PID.TID 0000.0001) %MON forcing_qsw_max              =   0.0000000000000E+00
(PID.TID 0000.0001) %MON forcing_qsw_min              =   0.0000000000000E+00
(PID.TID 0000.0001) %MON forcing_qsw_mean             =   0.0000000000000E+00
(PID.TID 0000.0001) %MON forcing_qsw_sd               =   0.0000000000000E+00
(PID.TID 0000.0001) %MON forcing_qsw_del2             =   0.0000000000000E+00
(PID.TID 0000.0001) %MON forcing_empmr_max            =   0.0000000000000E+00
(PID.TID 0000.0001) %MON forcing_empmr_min            =   0.0000000000000E+00
(PID.TID 0000.0001) %MON forcing_empmr_mean           =   0.0000000000000E+00
(PID.TID 0000.0001) %MON forcing_empmr_sd             =   0.0000000000000E+00
(PID.TID 0000.0001) %MON forcing_empmr_del2           =   0.0000000000000E+00
(PID.TID 0000.0001) %MON forcing_fu_max               =   0.0000000000000E+00
(PID.TID 0000.0001) %MON forcing_fu_min               =   0.0000000000000E+00
(PID.TID 0000.0001) %MON forcing_fu_mean              =   0.0000000000000E+00
(PID.TID 0000.0001) %MON forcing_fu_sd                =   0.0000000000000E+00
(PID.TID 0000.0001) %MON forcing_fu_del2              =   0.0000000000000E+00
(PID.TID 0000.0001) %MON forcing_fv_max               =   0.0000000000000E+00
(PID.TID 0000.0001) %MON forcing_fv_min               =   0.0000000000000E+00
(PID.TID 0000.0001) %MON forcing_fv_mean              =   0.0000000000000E+00
(PID.TID 0000.0001) %MON forcing_fv_sd                =   0.0000000000000E+00
(PID.TID 0000.0001) %MON forcing_fv_del2              =   0.0000000000000E+00
(PID.TID 0000.0001) %MON trAdv_CFL_u_max              =   0.0000000000000E+00
(PID.TID 0000.0001) %MON trAdv_CFL_v_max              =   0.0000000000000E+00
(PID.TID 0000.0001) %MON trAdv_CFL_w_max              =   0.0000000000000E+00
(PID.TID 0000.0001) %MON advcfl_uvel_max              =   6.9523385712875E-04
(PID.TID 0000.0001) %MON advcfl_vvel_max              =   6.2576331761465E-04
(PID.TID 0000.0001) %MON advcfl_wvel_max              =   2.6740066469077E-04
(PID.TID 0000.0001) %MON advcfl_W_hf_max              =   3.2088079762893E-04
(PID.TID 0000.0001) %MON pe_b_mean                    =   4.1138403908566E-04
(PID.TID 0000.0001) %MON ke_max                       =   3.1499048019696E-02
(PID.TID 0000.0001) %MON ke_mean                      =   1.0574476462810E-04
(PID.TID 0000.0001) %MON ke_vol                       =   1.2571476858570E+18
(PID.TID 0000.0001) %MON vort_r_min                   =  -9.2200320971920E-07
(PID.TID 0000.0001) %MON vort_r_max                   =   9.8870203226493E-07
(PID.TID 0000.0001) %MON vort_a_mean                  =  -2.4002453570026E-05
(PID.TID 0000.0001) %MON vort_a_sd                    =   7.3138176910932E-05
(PID.TID 0000.0001) %MON vort_p_mean                  =  -2.8585773838204E-05
(PID.TID 0000.0001) %MON vort_p_sd                    =   1.1453377537423E-04
(PID.TID 0000.0001) %MON surfExpan_theta_mean         =  -2.2011579959013E-07
(PID.TID 0000.0001) %MON surfExpan_salt_mean          =   2.1557167979197E-08
(PID.TID 0000.0001) // =======================================================
(PID.TID 0000.0001) // End MONITOR dynamic field statistics
(PID.TID 0000.0001) // =======================================================
(PID.TID 0000.0001)  MDS_WRITE_FIELD: it,rec,kS,kL,kH=       0     1  15   1  15 file=U.0000000000
(PID.TID 0000.0001)  MDS_WRITE_FIELD: it,rec,kS,kL,kH=       0     1  15   1  15 file=V.0000000000
(PID.TID 0000.0001)  MDS_WRITE_FIELD: it,rec,kS,kL,kH=       0     1  15   1  15 file=T.0000000000
(PID.TID 0000.0001)  MDS_WRITE_FIELD: it,rec,kS,kL,kH=       0     1  15   1  15 file=S.0000000000
(PID.TID 0000.0001)  MDS_WRITE_FIELD: it,rec,kS,kL,kH=       0     1   1   1   1 file=Eta.0000000000
(PID.TID 0000.0001)  MDS_WRITE_FIELD: it,rec,kS,kL,kH=       0     1  15   1  15 file=W.0000000000
(PID.TID 0000.0001) // =======================================================
(PID.TID 0000.0001) // Begin MONITOR SEAICE statistics
(PID.TID 0000.0001) // =======================================================
(PID.TID 0000.0001) %MON seaice_tsnumber              =                     0
(PID.TID 0000.0001) %MON seaice_time_sec              =   0.0000000000000E+00
(PID.TID 0000.0001) %MON seaice_uice_max              =   0.0000000000000E+00
(PID.TID 0000.0001) %MON seaice_uice_min              =   0.0000000000000E+00
(PID.TID 0000.0001) %MON seaice_uice_mean             =   0.0000000000000E+00
(PID.TID 0000.0001) %MON seaice_uice_sd               =   0.0000000000000E+00
(PID.TID 0000.0001) %MON seaice_uice_del2             =   0.0000000000000E+00
(PID.TID 0000.0001) %MON seaice_vice_max              =   0.0000000000000E+00
(PID.TID 0000.0001) %MON seaice_vice_min              =   0.0000000000000E+00
(PID.TID 0000.0001) %MON seaice_vice_mean             =   0.0000000000000E+00
(PID.TID 0000.0001) %MON seaice_vice_sd               =   0.0000000000000E+00
(PID.TID 0000.0001) %MON seaice_vice_del2             =   0.0000000000000E+00
(PID.TID 0000.0001) %MON seaice_area_max              =   1.0000000000000E+00
(PID.TID 0000.0001) %MON seaice_area_min              =   0.0000000000000E+00
(PID.TID 0000.0001) %MON seaice_area_mean             =   4.9479677100906E-03
(PID.TID 0000.0001) %MON seaice_area_sd               =   7.0167551800177E-02
(PID.TID 0000.0001) %MON seaice_area_del2             =   2.0486695703045E-03
(PID.TID 0000.0001) %MON seaice_heff_max              =   1.0000000000000E+00
(PID.TID 0000.0001) %MON seaice_heff_min              =   0.0000000000000E+00
(PID.TID 0000.0001) %MON seaice_heff_mean             =   4.9479677100906E-03
(PID.TID 0000.0001) %MON seaice_heff_sd               =   7.0167551800177E-02
(PID.TID 0000.0001) %MON seaice_heff_del2             =   2.0486695703045E-03
(PID.TID 0000.0001) %MON seaice_hsnow_max             =   2.0000000000000E-01
(PID.TID 0000.0001) %MON seaice_hsnow_min             =   0.0000000000000E+00
(PID.TID 0000.0001) %MON seaice_hsnow_mean            =   9.8959354201811E-04
(PID.TID 0000.0001) %MON seaice_hsnow_sd              =   1.4033510360035E-02
(PID.TID 0000.0001) %MON seaice_hsnow_del2            =   4.0973391406091E-04
(PID.TID 0000.0001) // =======================================================
(PID.TID 0000.0001) // End MONITOR SEAICE statistics
(PID.TID 0000.0001) // =======================================================
(PID.TID 0000.0001)  MDS_WRITE_FIELD: it,rec,kS,kL,kH=       0     1  15   1  15 file=PTRACER01.0000000000
(PID.TID 0000.0001)  MDS_WRITE_FIELD: it,rec,kS,kL,kH=       0     1  15   1  15 file=PTRACER02.0000000000
(PID.TID 0000.0001)  MDS_WRITE_FIELD: it,rec,kS,kL,kH=       0     1  15   1  15 file=PTRACER03.0000000000
(PID.TID 0000.0001)  MDS_WRITE_FIELD: it,rec,kS,kL,kH=       0     1  15   1  15 file=PTRACER04.0000000000
(PID.TID 0000.0001)  MDS_WRITE_FIELD: it,rec,kS,kL,kH=       0     1  15   1  15 file=PTRACER05.0000000000
(PID.TID 0000.0001) // =======================================================
(PID.TID 0000.0001) // Begin MONITOR ptracer field statistics
(PID.TID 0000.0001) // =======================================================
(PID.TID 0000.0001) %MON trcstat_ptracer01_max        =   2.4429509639740E+00
(PID.TID 0000.0001) %MON trcstat_ptracer01_min        =   1.6411768198013E+00
(PID.TID 0000.0001) %MON trcstat_ptracer01_mean       =   2.2619456455511E+00
(PID.TID 0000.0001) %MON trcstat_ptracer01_sd         =   1.0331286204117E-01
(PID.TID 0000.0001) %MON trcstat_ptracer01_del2       =   3.5366179702717E-05
(PID.TID 0000.0001) %MON trcstat_ptracer02_max        =   2.5617847442627E+00
(PID.TID 0000.0001) %MON trcstat_ptracer02_min        =   1.9500364065170E+00
(PID.TID 0000.0001) %MON trcstat_ptracer02_mean       =   2.3641949246227E+00
(PID.TID 0000.0001) %MON trcstat_ptracer02_sd         =   4.9629918284655E-02
(PID.TID 0000.0001) %MON trcstat_ptracer02_del2       =   2.3379348647141E-05
(PID.TID 0000.0001) %MON trcstat_ptracer03_max        =   3.2964255660772E-03
(PID.TID 0000.0001) %MON trcstat_ptracer03_min        =   4.8658221203368E-05
(PID.TID 0000.0001) %MON trcstat_ptracer03_mean       =   2.1265729799887E-03
(PID.TID 0000.0001) %MON trcstat_ptracer03_sd         =   6.9838206323707E-04
(PID.TID 0000.0001) %MON trcstat_ptracer03_del2       =   2.2273775187945E-07
(PID.TID 0000.0001) %MON trcstat_ptracer04_max        =   3.0026849708520E-04
(PID.TID 0000.0001) %MON trcstat_ptracer04_min        =  -1.8981224059189E-07
(PID.TID 0000.0001) %MON trcstat_ptracer04_mean       =   5.9486556791542E-06
(PID.TID 0000.0001) %MON trcstat_ptracer04_sd         =   2.6309645062685E-05
(PID.TID 0000.0001) %MON trcstat_ptracer04_del2       =   3.2481489514464E-08
(PID.TID 0000.0001) %MON trcstat_ptracer05_max        =   3.8399705290794E-01
(PID.TID 0000.0001) %MON trcstat_ptracer05_min        =   3.9748288691044E-03
(PID.TID 0000.0001) %MON trcstat_ptracer05_mean       =   1.6196386319883E-01
(PID.TID 0000.0001) %MON trcstat_ptracer05_sd         =   7.3415516707685E-02
(PID.TID 0000.0001) %MON trcstat_ptracer05_del2       =   3.0999411155864E-05
(PID.TID 0000.0001) // =======================================================
(PID.TID 0000.0001) // End MONITOR ptracers field statistics
(PID.TID 0000.0001) // =======================================================
(PID.TID 0000.0001) EXF_SET_FLD: processing field "apco2",  file: apCO2_2000
(PID.TID 0000.0001) EXF_SET_FLD:   myIter, count0, count1:         0     12      1
(PID.TID 0000.0001) EXF_SET_FLD:   first, changed, fac:   T   F   0.500000000E+00
(PID.TID 0000.0001) EXF_SET_FLD: field "apco2", it=         0, loading rec=    12
(PID.TID 0000.0001) EXF_SET_FLD:   from file: "apCO2_2000"
(PID.TID 0000.0001)  EXF_INTERP_READ: opening file: apCO2_2000
(PID.TID 0000.0001)  EXF_INTERP: file="apCO2_2000", rec=    12 , x-Per,P.Sym=    T    T
(PID.TID 0000.0001)  S.edge (j=-1,0,1) : proc= 2.2 1.1 0.0, yIn=  -91.500000  -90.000000  -88.500000
(PID.TID 0000.0001)  N.edge (j=+0,+1,+2) proc= 0.0 1.1 2.2, yIn=   88.500000   90.000000   91.500000
(PID.TID 0000.0001) EXF_SET_FLD: field "apco2", it=         0, loading rec=     1
(PID.TID 0000.0001) EXF_SET_FLD:   from file: "apCO2_2000"
(PID.TID 0000.0001)  EXF_INTERP_READ: opening file: apCO2_2000
(PID.TID 0000.0001)  EXF_INTERP: file="apCO2_2000", rec=     1 , x-Per,P.Sym=    T    T
(PID.TID 0000.0001)  S.edge (j=-1,0,1) : proc= 2.2 1.1 0.0, yIn=  -91.500000  -90.000000  -88.500000
(PID.TID 0000.0001)  N.edge (j=+0,+1,+2) proc= 0.0 1.1 2.2, yIn=   88.500000   90.000000   91.500000
(PID.TID 0000.0001) EXF_SET_UV: processing fields "uwind" & "vwind"
(PID.TID 0000.0001) EXF_SET_UV:   files: EIG_u10m_2000 & EIG_v10m_2000
(PID.TID 0000.0001) EXF_SET_UV:   myIter, count0, count1:         0     12      1
(PID.TID 0000.0001) EXF_SET_UV:   first, changed, fac:   T   F   0.500000000E+00
(PID.TID 0000.0001) EXF_SET_UV: fields "uwind" & "vwind", it=         0
(PID.TID 0000.0001) EXF_SET_UV:   loading rec=    12 from file: "EIG_u10m_2000"
(PID.TID 0000.0001) EXF_SET_UV:   loading rec=    12 from file: "EIG_v10m_2000"
(PID.TID 0000.0001)  EXF_INTERP_READ: opening file: EIG_u10m_2000
(PID.TID 0000.0001)  EXF_INTERP_READ: opening file: EIG_v10m_2000
(PID.TID 0000.0001)  EXF_INTERP_UV: fileU="EIG_u10m_2000", rec=    12 , x-Per,P.Sym=    T    T
(PID.TID 0000.0001)  S.edge (j=-1,0,1) : proc= 2.2 1.1 0.0, yIn=  -91.500000  -90.000000  -88.500000
(PID.TID 0000.0001)  N.edge (j=+0,+1,+2) proc= 0.0 1.1 2.2, yIn=   88.500000   90.000000   91.500000
(PID.TID 0000.0001) EXF_SET_UV: fields "uwind" & "vwind", it=         0
(PID.TID 0000.0001) EXF_SET_UV:   loading rec=     1 from file: "EIG_u10m_2000"
(PID.TID 0000.0001) EXF_SET_UV:   loading rec=     1 from file: "EIG_v10m_2000"
(PID.TID 0000.0001)  EXF_INTERP_READ: opening file: EIG_u10m_2000
(PID.TID 0000.0001)  EXF_INTERP_READ: opening file: EIG_v10m_2000
(PID.TID 0000.0001)  EXF_INTERP_UV: fileU="EIG_u10m_2000", rec=     1 , x-Per,P.Sym=    T    T
(PID.TID 0000.0001)  S.edge (j=-1,0,1) : proc= 2.2 1.1 0.0, yIn=  -91.500000  -90.000000  -88.500000
(PID.TID 0000.0001)  N.edge (j=+0,+1,+2) proc= 0.0 1.1 2.2, yIn=   88.500000   90.000000   91.500000
(PID.TID 0000.0001) EXF_SET_FLD: processing field "atemp",  file: EIG_tmp2m_degC_plus_ECCO_v4r1_ctrl_2000
(PID.TID 0000.0001) EXF_SET_FLD:   myIter, count0, count1:         0     12      1
(PID.TID 0000.0001) EXF_SET_FLD:   first, changed, fac:   T   F   0.500000000E+00
(PID.TID 0000.0001) EXF_SET_FLD: field "atemp", it=         0, loading rec=    12
(PID.TID 0000.0001) EXF_SET_FLD:   from file: "EIG_tmp2m_degC_plus_ECCO_v4r1_ctrl_2000"
(PID.TID 0000.0001)  EXF_INTERP_READ: opening file: EIG_tmp2m_degC_plus_ECCO_v4r1_ctrl_2000
(PID.TID 0000.0001)  EXF_INTERP: file="EIG_tmp2m_degC_plus_ECCO_v4r1_ctrl_2000", rec=    12 , x-Per,P.Sym=    T    T
(PID.TID 0000.0001)  S.edge (j=-1,0,1) : proc= 2.2 1.1 0.0, yIn=  -91.500000  -90.000000  -88.500000
(PID.TID 0000.0001)  N.edge (j=+0,+1,+2) proc= 0.0 1.1 2.2, yIn=   88.500000   90.000000   91.500000
(PID.TID 0000.0001) EXF_SET_FLD: field "atemp", it=         0, loading rec=     1
(PID.TID 0000.0001) EXF_SET_FLD:   from file: "EIG_tmp2m_degC_plus_ECCO_v4r1_ctrl_2000"
(PID.TID 0000.0001)  EXF_INTERP_READ: opening file: EIG_tmp2m_degC_plus_ECCO_v4r1_ctrl_2000
(PID.TID 0000.0001)  EXF_INTERP: file="EIG_tmp2m_degC_plus_ECCO_v4r1_ctrl_2000", rec=     1 , x-Per,P.Sym=    T    T
(PID.TID 0000.0001)  S.edge (j=-1,0,1) : proc= 2.2 1.1 0.0, yIn=  -91.500000  -90.000000  -88.500000
(PID.TID 0000.0001)  N.edge (j=+0,+1,+2) proc= 0.0 1.1 2.2, yIn=   88.500000   90.000000   91.500000
(PID.TID 0000.0001) EXF_SET_FLD: processing field "aqh",  file: EIG_spfh2m_plus_ECCO_v4r1_ctrl_2000
(PID.TID 0000.0001) EXF_SET_FLD:   myIter, count0, count1:         0     12      1
(PID.TID 0000.0001) EXF_SET_FLD:   first, changed, fac:   T   F   0.500000000E+00
(PID.TID 0000.0001) EXF_SET_FLD: field "aqh", it=         0, loading rec=    12
(PID.TID 0000.0001) EXF_SET_FLD:   from file: "EIG_spfh2m_plus_ECCO_v4r1_ctrl_2000"
(PID.TID 0000.0001)  EXF_INTERP_READ: opening file: EIG_spfh2m_plus_ECCO_v4r1_ctrl_2000
(PID.TID 0000.0001)  EXF_INTERP: file="EIG_spfh2m_plus_ECCO_v4r1_ctrl_2000", rec=    12 , x-Per,P.Sym=    T    T
(PID.TID 0000.0001)  S.edge (j=-1,0,1) : proc= 2.2 1.1 0.0, yIn=  -91.500000  -90.000000  -88.500000
(PID.TID 0000.0001)  N.edge (j=+0,+1,+2) proc= 0.0 1.1 2.2, yIn=   88.500000   90.000000   91.500000
(PID.TID 0000.0001) EXF_SET_FLD: field "aqh", it=         0, loading rec=     1
(PID.TID 0000.0001) EXF_SET_FLD:   from file: "EIG_spfh2m_plus_ECCO_v4r1_ctrl_2000"
(PID.TID 0000.0001)  EXF_INTERP_READ: opening file: EIG_spfh2m_plus_ECCO_v4r1_ctrl_2000
(PID.TID 0000.0001)  EXF_INTERP: file="EIG_spfh2m_plus_ECCO_v4r1_ctrl_2000", rec=     1 , x-Per,P.Sym=    T    T
(PID.TID 0000.0001)  S.edge (j=-1,0,1) : proc= 2.2 1.1 0.0, yIn=  -91.500000  -90.000000  -88.500000
(PID.TID 0000.0001)  N.edge (j=+0,+1,+2) proc= 0.0 1.1 2.2, yIn=   88.500000   90.000000   91.500000
(PID.TID 0000.0001) EXF_SET_FLD: processing field "precip",  file: EIG_rain_plus_ECCO_v4r1_ctrl_2000
(PID.TID 0000.0001) EXF_SET_FLD:   myIter, count0, count1:         0     12      1
(PID.TID 0000.0001) EXF_SET_FLD:   first, changed, fac:   T   F   0.500000000E+00
(PID.TID 0000.0001) EXF_SET_FLD: field "precip", it=         0, loading rec=    12
(PID.TID 0000.0001) EXF_SET_FLD:   from file: "EIG_rain_plus_ECCO_v4r1_ctrl_2000"
(PID.TID 0000.0001)  EXF_INTERP_READ: opening file: EIG_rain_plus_ECCO_v4r1_ctrl_2000
(PID.TID 0000.0001)  EXF_INTERP: file="EIG_rain_plus_ECCO_v4r1_ctrl_2000", rec=    12 , x-Per,P.Sym=    T    T
(PID.TID 0000.0001)  S.edge (j=-1,0,1) : proc= 2.2 1.1 0.0, yIn=  -91.500000  -90.000000  -88.500000
(PID.TID 0000.0001)  N.edge (j=+0,+1,+2) proc= 0.0 1.1 2.2, yIn=   88.500000   90.000000   91.500000
(PID.TID 0000.0001) EXF_SET_FLD: field "precip", it=         0, loading rec=     1
(PID.TID 0000.0001) EXF_SET_FLD:   from file: "EIG_rain_plus_ECCO_v4r1_ctrl_2000"
(PID.TID 0000.0001)  EXF_INTERP_READ: opening file: EIG_rain_plus_ECCO_v4r1_ctrl_2000
(PID.TID 0000.0001)  EXF_INTERP: file="EIG_rain_plus_ECCO_v4r1_ctrl_2000", rec=     1 , x-Per,P.Sym=    T    T
(PID.TID 0000.0001)  S.edge (j=-1,0,1) : proc= 2.2 1.1 0.0, yIn=  -91.500000  -90.000000  -88.500000
(PID.TID 0000.0001)  N.edge (j=+0,+1,+2) proc= 0.0 1.1 2.2, yIn=   88.500000   90.000000   91.500000
(PID.TID 0000.0001) EXF_SET_FLD: processing field "swdown",  file: EIG_dsw_plus_ECCO_v4r1_ctrl_2000
(PID.TID 0000.0001) EXF_SET_FLD:   myIter, count0, count1:         0     12      1
(PID.TID 0000.0001) EXF_SET_FLD:   first, changed, fac:   T   F   0.500000000E+00
(PID.TID 0000.0001) EXF_SET_FLD: field "swdown", it=         0, loading rec=    12
(PID.TID 0000.0001) EXF_SET_FLD:   from file: "EIG_dsw_plus_ECCO_v4r1_ctrl_2000"
(PID.TID 0000.0001)  EXF_INTERP_READ: opening file: EIG_dsw_plus_ECCO_v4r1_ctrl_2000
(PID.TID 0000.0001)  EXF_INTERP: file="EIG_dsw_plus_ECCO_v4r1_ctrl_2000", rec=    12 , x-Per,P.Sym=    T    T
(PID.TID 0000.0001)  S.edge (j=-1,0,1) : proc= 2.2 1.1 0.0, yIn=  -91.500000  -90.000000  -88.500000
(PID.TID 0000.0001)  N.edge (j=+0,+1,+2) proc= 0.0 1.1 2.2, yIn=   88.500000   90.000000   91.500000
(PID.TID 0000.0001) EXF_SET_FLD: field "swdown", it=         0, loading rec=     1
(PID.TID 0000.0001) EXF_SET_FLD:   from file: "EIG_dsw_plus_ECCO_v4r1_ctrl_2000"
(PID.TID 0000.0001)  EXF_INTERP_READ: opening file: EIG_dsw_plus_ECCO_v4r1_ctrl_2000
(PID.TID 0000.0001)  EXF_INTERP: file="EIG_dsw_plus_ECCO_v4r1_ctrl_2000", rec=     1 , x-Per,P.Sym=    T    T
(PID.TID 0000.0001)  S.edge (j=-1,0,1) : proc= 2.2 1.1 0.0, yIn=  -91.500000  -90.000000  -88.500000
(PID.TID 0000.0001)  N.edge (j=+0,+1,+2) proc= 0.0 1.1 2.2, yIn=   88.500000   90.000000   91.500000
(PID.TID 0000.0001) EXF_SET_FLD: processing field "lwdown",  file: EIG_dlw_plus_ECCO_v4r1_ctrl_2000
(PID.TID 0000.0001) EXF_SET_FLD:   myIter, count0, count1:         0     12      1
(PID.TID 0000.0001) EXF_SET_FLD:   first, changed, fac:   T   F   0.500000000E+00
(PID.TID 0000.0001) EXF_SET_FLD: field "lwdown", it=         0, loading rec=    12
(PID.TID 0000.0001) EXF_SET_FLD:   from file: "EIG_dlw_plus_ECCO_v4r1_ctrl_2000"
(PID.TID 0000.0001)  EXF_INTERP_READ: opening file: EIG_dlw_plus_ECCO_v4r1_ctrl_2000
(PID.TID 0000.0001)  EXF_INTERP: file="EIG_dlw_plus_ECCO_v4r1_ctrl_2000", rec=    12 , x-Per,P.Sym=    T    T
(PID.TID 0000.0001)  S.edge (j=-1,0,1) : proc= 2.2 1.1 0.0, yIn=  -91.500000  -90.000000  -88.500000
(PID.TID 0000.0001)  N.edge (j=+0,+1,+2) proc= 0.0 1.1 2.2, yIn=   88.500000   90.000000   91.500000
(PID.TID 0000.0001) EXF_SET_FLD: field "lwdown", it=         0, loading rec=     1
(PID.TID 0000.0001) EXF_SET_FLD:   from file: "EIG_dlw_plus_ECCO_v4r1_ctrl_2000"
(PID.TID 0000.0001)  EXF_INTERP_READ: opening file: EIG_dlw_plus_ECCO_v4r1_ctrl_2000
(PID.TID 0000.0001)  EXF_INTERP: file="EIG_dlw_plus_ECCO_v4r1_ctrl_2000", rec=     1 , x-Per,P.Sym=    T    T
(PID.TID 0000.0001)  S.edge (j=-1,0,1) : proc= 2.2 1.1 0.0, yIn=  -91.500000  -90.000000  -88.500000
(PID.TID 0000.0001)  N.edge (j=+0,+1,+2) proc= 0.0 1.1 2.2, yIn=   88.500000   90.000000   91.500000
(PID.TID 0000.0001) EXF_SET_FLD: processing field "runoff",  file: runoff-2d-Fekete-1deg-mon-V4-SMOOTH.bin
(PID.TID 0000.0001) EXF_SET_FLD:   myIter, count0, count1:         0     12      1
(PID.TID 0000.0001) EXF_SET_FLD:   first, changed, fac:   T   F   0.500000000E+00
(PID.TID 0000.0001) EXF_SET_FLD: field "runoff", it=         0, loading rec=    12
(PID.TID 0000.0001) EXF_SET_FLD:   from file: "runoff-2d-Fekete-1deg-mon-V4-SMOOTH.bin"
(PID.TID 0000.0001)  EXF_INTERP_READ: opening file: runoff-2d-Fekete-1deg-mon-V4-SMOOTH.bin
(PID.TID 0000.0001)  EXF_INTERP: file="runoff-2d-Fekete-1deg-mon-V4-SMOOTH.bin", rec=    12 , x-Per,P.Sym=    T    T
(PID.TID 0000.0001)  S.edge (j=-1,0,1) : proc= 2.2 1.1 0.0, yIn=  -91.500000  -90.000000  -88.500000
(PID.TID 0000.0001)  N.edge (j=+0,+1,+2) proc= 0.0 1.1 2.2, yIn=   88.500000   90.000000   91.500000
(PID.TID 0000.0001) EXF_SET_FLD: field "runoff", it=         0, loading rec=     1
(PID.TID 0000.0001) EXF_SET_FLD:   from file: "runoff-2d-Fekete-1deg-mon-V4-SMOOTH.bin"
(PID.TID 0000.0001)  EXF_INTERP_READ: opening file: runoff-2d-Fekete-1deg-mon-V4-SMOOTH.bin
(PID.TID 0000.0001)  EXF_INTERP: file="runoff-2d-Fekete-1deg-mon-V4-SMOOTH.bin", rec=     1 , x-Per,P.Sym=    T    T
(PID.TID 0000.0001)  S.edge (j=-1,0,1) : proc= 2.2 1.1 0.0, yIn=  -91.500000  -90.000000  -88.500000
(PID.TID 0000.0001)  N.edge (j=+0,+1,+2) proc= 0.0 1.1 2.2, yIn=   88.500000   90.000000   91.500000
(PID.TID 0000.0001) // =======================================================
(PID.TID 0000.0001) // Begin MONITOR EXF statistics
(PID.TID 0000.0001) // =======================================================
(PID.TID 0000.0001) %MON exf_tsnumber                 =                     0
(PID.TID 0000.0001) %MON exf_time_sec                 =   0.0000000000000E+00
(PID.TID 0000.0001) %MON exf_ustress_max              =   1.3197150319256E-01
(PID.TID 0000.0001) %MON exf_ustress_min              =  -1.1241981062184E-01
(PID.TID 0000.0001) %MON exf_ustress_mean             =  -4.4180119380266E-03
(PID.TID 0000.0001) %MON exf_ustress_sd               =   4.0089270205977E-02
(PID.TID 0000.0001) %MON exf_ustress_del2             =   1.4491822243411E-04
(PID.TID 0000.0001) %MON exf_vstress_max              =   9.9475057744052E-02
(PID.TID 0000.0001) %MON exf_vstress_min              =  -1.0051745098143E-01
(PID.TID 0000.0001) %MON exf_vstress_mean             =  -3.5066816367686E-03
(PID.TID 0000.0001) %MON exf_vstress_sd               =   1.8016414682053E-02
(PID.TID 0000.0001) %MON exf_vstress_del2             =   9.7296041162761E-05
(PID.TID 0000.0001) %MON exf_hflux_max                =   4.1332097421966E+02
(PID.TID 0000.0001) %MON exf_hflux_min                =  -3.3217430683864E+02
(PID.TID 0000.0001) %MON exf_hflux_mean               =  -8.1859540885358E+01
(PID.TID 0000.0001) %MON exf_hflux_sd                 =   1.0068707423552E+02
(PID.TID 0000.0001) %MON exf_hflux_del2               =   7.3316923717300E-01
(PID.TID 0000.0001) %MON exf_sflux_max                =   8.5103649949442E-08
(PID.TID 0000.0001) %MON exf_sflux_min                =  -6.3499828181685E-07
(PID.TID 0000.0001) %MON exf_sflux_mean               =  -1.5667042388710E-08
(PID.TID 0000.0001) %MON exf_sflux_sd                 =   3.7495716069479E-08
(PID.TID 0000.0001) %MON exf_sflux_del2               =   3.5164741065783E-10
(PID.TID 0000.0001) %MON exf_uwind_max                =   9.5224857206284E+00
(PID.TID 0000.0001) %MON exf_uwind_min                =  -8.7611307694778E+00
(PID.TID 0000.0001) %MON exf_uwind_mean               =  -4.9431205154469E-01
(PID.TID 0000.0001) %MON exf_uwind_sd                 =   4.4179319085267E+00
(PID.TID 0000.0001) %MON exf_uwind_del2               =   2.1172851608928E-02
(PID.TID 0000.0001) %MON exf_vwind_max                =   8.7164818880075E+00
(PID.TID 0000.0001) %MON exf_vwind_min                =  -6.9944463716967E+00
(PID.TID 0000.0001) %MON exf_vwind_mean               =  -3.7872453115568E-01
(PID.TID 0000.0001) %MON exf_vwind_sd                 =   2.2080112107056E+00
(PID.TID 0000.0001) %MON exf_vwind_del2               =   1.4187763702737E-02
(PID.TID 0000.0001) %MON exf_wspeed_max               =   9.5380653617048E+00
(PID.TID 0000.0001) %MON exf_wspeed_min               =   4.6660499226386E-02
(PID.TID 0000.0001) %MON exf_wspeed_mean              =   4.4777651512225E+00
(PID.TID 0000.0001) %MON exf_wspeed_sd                =   2.1750475351768E+00
(PID.TID 0000.0001) %MON exf_wspeed_del2              =   2.6390569373174E-02
(PID.TID 0000.0001) %MON exf_atemp_max                =   3.0188411019333E+02
(PID.TID 0000.0001) %MON exf_atemp_min                =   2.4477540550809E+02
(PID.TID 0000.0001) %MON exf_atemp_mean               =   2.9041286683468E+02
(PID.TID 0000.0001) %MON exf_atemp_sd                 =   9.7907953297784E+00
(PID.TID 0000.0001) %MON exf_atemp_del2               =   9.0505580416294E-02
(PID.TID 0000.0001) %MON exf_aqh_max                  =   1.9838785819047E-02
(PID.TID 0000.0001) %MON exf_aqh_min                  =   3.5635560571023E-04
(PID.TID 0000.0001) %MON exf_aqh_mean                 =   1.1235130713023E-02
(PID.TID 0000.0001) %MON exf_aqh_sd                   =   5.1804447890857E-03
(PID.TID 0000.0001) %MON exf_aqh_del2                 =   5.8602317193635E-05
(PID.TID 0000.0001) %MON exf_lwflux_max               =   1.5496547424105E+02
(PID.TID 0000.0001) %MON exf_lwflux_min               =   4.3012168101765E+00
(PID.TID 0000.0001) %MON exf_lwflux_mean              =   4.1308763542327E+01
(PID.TID 0000.0001) %MON exf_lwflux_sd                =   1.3587283248759E+01
(PID.TID 0000.0001) %MON exf_lwflux_del2              =   1.9930757066374E-01
(PID.TID 0000.0001) %MON exf_evap_max                 =   8.5128523201826E-08
(PID.TID 0000.0001) %MON exf_evap_min                 =  -1.2832224145005E-08
(PID.TID 0000.0001) %MON exf_evap_mean                =   2.6031676896681E-08
(PID.TID 0000.0001) %MON exf_evap_sd                  =   1.7974662914332E-08
(PID.TID 0000.0001) %MON exf_evap_del2                =   1.6640093121465E-10
(PID.TID 0000.0001) %MON exf_precip_max               =   1.4863974505744E-07
(PID.TID 0000.0001) %MON exf_precip_min               =  -8.5454258814521E-09
(PID.TID 0000.0001) %MON exf_precip_mean              =   3.9997275821750E-08
(PID.TID 0000.0001) %MON exf_precip_sd                =   2.9094932092526E-08
(PID.TID 0000.0001) %MON exf_precip_del2              =   3.1034477850694E-10
(PID.TID 0000.0001) %MON exf_swflux_max               =   3.3121876763925E+01
(PID.TID 0000.0001) %MON exf_swflux_min               =  -3.5303847682555E+02
(PID.TID 0000.0001) %MON exf_swflux_mean              =  -1.9692612279934E+02
(PID.TID 0000.0001) %MON exf_swflux_sd                =   7.3608010845450E+01
(PID.TID 0000.0001) %MON exf_swflux_del2              =   9.3067975338874E-01
(PID.TID 0000.0001) %MON exf_swdown_max               =   3.8081123372912E+02
(PID.TID 0000.0001) %MON exf_swdown_min               =  -4.7316966805607E+01
(PID.TID 0000.0001) %MON exf_swdown_mean              =   2.1343149596385E+02
(PID.TID 0000.0001) %MON exf_swdown_sd                =   7.8896145517863E+01
(PID.TID 0000.0001) %MON exf_swdown_del2              =   1.0071708478324E+00
(PID.TID 0000.0001) %MON exf_lwdown_max               =   4.4360816286504E+02
(PID.TID 0000.0001) %MON exf_lwdown_min               =   1.5699785740674E+02
(PID.TID 0000.0001) %MON exf_lwdown_mean              =   3.6918898915757E+02
(PID.TID 0000.0001) %MON exf_lwdown_sd                =   5.1751594993112E+01
(PID.TID 0000.0001) %MON exf_lwdown_del2              =   1.5869276340559E+00
(PID.TID 0000.0001) %MON exf_runoff_max               =   5.5080651490888E-07
(PID.TID 0000.0001) %MON exf_runoff_min               =   0.0000000000000E+00
(PID.TID 0000.0001) %MON exf_runoff_mean              =   1.7014434636413E-09
(PID.TID 0000.0001) %MON exf_runoff_sd                =   1.1339133423345E-08
(PID.TID 0000.0001) %MON exf_runoff_del2              =   1.2648092288215E-10
(PID.TID 0000.0001) %MON exf_apco2_max                =   3.7073999010317E-04
(PID.TID 0000.0001) %MON exf_apco2_min                =   3.6819630804530E-04
(PID.TID 0000.0001) %MON exf_apco2_mean               =   3.6882166552950E-04
(PID.TID 0000.0001) %MON exf_apco2_sd                 =   5.2225728733331E-07
(PID.TID 0000.0001) %MON exf_apco2_del2               =   1.5223079604038E-06
(PID.TID 0000.0001) // =======================================================
(PID.TID 0000.0001) // End MONITOR EXF statistics
(PID.TID 0000.0001) // =======================================================
 EXTERNAL_FIELDS_LOAD,         0 : iP,iLd,i0,i1=   12    0   12    1 ; Wght=  0.5000000000  0.5000000000
 EXTERNAL_FIELDS_LOAD, it=         0 : Reading new data, i0,i1=   12    1 (prev=   12    0 )
 EXTERNAL_FIELDS_LOAD: (fu0,1),fu,fv=  0.0000E+00  0.0000E+00 -8.5079E-04  2.4541E-02
 EXTERNAL_FIELDS_LOAD: SST,SSS,Q,E-P=  0.0000E+00  0.0000E+00 -1.4151E+02 -4.1128E-05
 DIC_FIELDS_LOAD,         0 : iP,iLd,i0,i1=   12    0   12    1 ; Wght=  0.5000000000  0.5000000000
 DIC_FIELDS_LOAD, it=         0 : Reading new data, i0,i1=   12    1 (prev=   12    0 )
(PID.TID 0000.0001)  MDS_READ_FIELD: opening global file: tren_speed.bin
(PID.TID 0000.0001)  MDS_READ_FIELD: opening global file: tren_speed.bin
(PID.TID 0000.0001)  MDS_READ_FIELD: opening global file: sillev1.bin
(PID.TID 0000.0001)  MDS_READ_FIELD: opening global file: sillev1.bin
(PID.TID 0000.0001)  MDS_READ_FIELD: opening global file: fice.bin
(PID.TID 0000.0001)  MDS_READ_FIELD: opening global file: fice.bin
DEBUG_STATS_RL:          Uvel (THERMODYNAMICS)  min= -2.38301202654839E-01
DEBUG_STATS_RL:          Uvel (THERMODYNAMICS)  max=  1.89919561147690E-01
DEBUG_STATS_RL:          Uvel (THERMODYNAMICS) mean=  4.34596969872428E-03
DEBUG_STATS_RL:          Uvel (THERMODYNAMICS) S.D.=  2.22729535248782E-02
DEBUG_STATS_RL:          Vvel (THERMODYNAMICS)  min= -2.17408701777458E-01
DEBUG_STATS_RL:          Vvel (THERMODYNAMICS)  max=  1.49026080965996E-01
DEBUG_STATS_RL:          Vvel (THERMODYNAMICS) mean=  2.04012565921164E-04
DEBUG_STATS_RL:          Vvel (THERMODYNAMICS) S.D.=  1.29018089873914E-02
DEBUG_STATS_RL:          Wvel (THERMODYNAMICS)  min= -5.43636469636994E-05
DEBUG_STATS_RL:          Wvel (THERMODYNAMICS)  max=  5.22788935574831E-05
DEBUG_STATS_RL:          Wvel (THERMODYNAMICS) mean=  1.15417846277439E-08
DEBUG_STATS_RL:          Wvel (THERMODYNAMICS) S.D.=  2.64746611410843E-06
DEBUG_STATS_RL:         Theta (THERMODYNAMICS)  min= -3.46751164312462E+00
DEBUG_STATS_RL:         Theta (THERMODYNAMICS)  max=  3.02462411177576E+01
DEBUG_STATS_RL:         Theta (THERMODYNAMICS) mean=  6.18025038891435E+00
DEBUG_STATS_RL:         Theta (THERMODYNAMICS) S.D.=  6.76147799126129E+00
DEBUG_STATS_RL:          Salt (THERMODYNAMICS)  min=  3.14845895423960E+01
DEBUG_STATS_RL:          Salt (THERMODYNAMICS)  max=  3.75568400756261E+01
DEBUG_STATS_RL:          Salt (THERMODYNAMICS) mean=  3.46619898303264E+01
DEBUG_STATS_RL:          Salt (THERMODYNAMICS) S.D.=  4.90706794126934E-01
DEBUG_STATS_RL:                   PTRACER.0001  min=  1.64117380759586E+00
DEBUG_STATS_RL:                   PTRACER.0001  max=  2.44295095577211E+00
DEBUG_STATS_RL:                   PTRACER.0001 mean=  2.19530554833408E+00
DEBUG_STATS_RL:                   PTRACER.0001 S.D.=  1.33210780111003E-01
DEBUG_STATS_RL:                   GNm1TRC.0001  min=  0.00000000000000E+00
DEBUG_STATS_RL:                   GNm1TRC.0001  max=  0.00000000000000E+00
DEBUG_STATS_RL:                   GNm1TRC.0001 mean=  0.00000000000000E+00
DEBUG_STATS_RL:                   GNm1TRC.0001 S.D.=  0.00000000000000E+00
DEBUG_STATS_RL:                   PTRACER.0002  min=  1.95003295984120E+00
DEBUG_STATS_RL:                   PTRACER.0002  max=  2.56178199550684E+00
DEBUG_STATS_RL:                   PTRACER.0002 mean=  2.33903780847455E+00
DEBUG_STATS_RL:                   PTRACER.0002 S.D.=  6.29569046431344E-02
DEBUG_STATS_RL:                   GNm1TRC.0002  min=  0.00000000000000E+00
DEBUG_STATS_RL:                   GNm1TRC.0002  max=  0.00000000000000E+00
DEBUG_STATS_RL:                   GNm1TRC.0002 mean=  0.00000000000000E+00
DEBUG_STATS_RL:                   GNm1TRC.0002 S.D.=  0.00000000000000E+00
DEBUG_STATS_RL:                   PTRACER.0003  min=  4.86602129405595E-05
DEBUG_STATS_RL:                   PTRACER.0003  max=  3.29642524543699E-03
DEBUG_STATS_RL:                   PTRACER.0003 mean=  1.74938663787010E-03
DEBUG_STATS_RL:                   PTRACER.0003 S.D.=  8.38788438884086E-04
DEBUG_STATS_RL:                   GNm1TRC.0003  min=  0.00000000000000E+00
DEBUG_STATS_RL:                   GNm1TRC.0003  max=  0.00000000000000E+00
DEBUG_STATS_RL:                   GNm1TRC.0003 mean=  0.00000000000000E+00
DEBUG_STATS_RL:                   GNm1TRC.0003 S.D.=  0.00000000000000E+00
DEBUG_STATS_RL:                   PTRACER.0004  min= -1.89820875527346E-07
DEBUG_STATS_RL:                   PTRACER.0004  max=  3.00261948243200E-04
DEBUG_STATS_RL:                   PTRACER.0004 mean=  2.59067144584192E-05
DEBUG_STATS_RL:                   PTRACER.0004 S.D.=  5.37041635405304E-05
DEBUG_STATS_RL:                   GNm1TRC.0004  min=  0.00000000000000E+00
DEBUG_STATS_RL:                   GNm1TRC.0004  max=  0.00000000000000E+00
DEBUG_STATS_RL:                   GNm1TRC.0004 mean=  0.00000000000000E+00
DEBUG_STATS_RL:                   GNm1TRC.0004 S.D.=  0.00000000000000E+00
DEBUG_STATS_RL:                   PTRACER.0005  min=  3.97499535637598E-03
DEBUG_STATS_RL:                   PTRACER.0005  max=  3.83994176545469E-01
DEBUG_STATS_RL:                   PTRACER.0005 mean=  1.88096971612234E-01
DEBUG_STATS_RL:                   PTRACER.0005 S.D.=  7.98039221642644E-02
DEBUG_STATS_RL:                   GNm1TRC.0005  min=  0.00000000000000E+00
DEBUG_STATS_RL:                   GNm1TRC.0005  max=  0.00000000000000E+00
DEBUG_STATS_RL:                   GNm1TRC.0005 mean=  0.00000000000000E+00
DEBUG_STATS_RL:                   GNm1TRC.0005 S.D.=  0.00000000000000E+00
DEBUG_STATS_RL:                EtaN (DYNAMICS)  min= -1.47829401493073E+00
DEBUG_STATS_RL:                EtaN (DYNAMICS)  max=  9.66493010520935E-01
DEBUG_STATS_RL:                EtaN (DYNAMICS) mean= -1.58719619410821E-01
DEBUG_STATS_RL:                EtaN (DYNAMICS) S.D.=  6.39951514166154E-01
DEBUG_STATS_RL:                Uvel (DYNAMICS)  min= -2.38301202654839E-01
DEBUG_STATS_RL:                Uvel (DYNAMICS)  max=  1.89919561147690E-01
DEBUG_STATS_RL:                Uvel (DYNAMICS) mean=  4.34596969872428E-03
DEBUG_STATS_RL:                Uvel (DYNAMICS) S.D.=  2.22729535248782E-02
DEBUG_STATS_RL:                Vvel (DYNAMICS)  min= -2.17408701777458E-01
DEBUG_STATS_RL:                Vvel (DYNAMICS)  max=  1.49026080965996E-01
DEBUG_STATS_RL:                Vvel (DYNAMICS) mean=  2.04012565921164E-04
DEBUG_STATS_RL:                Vvel (DYNAMICS) S.D.=  1.29018089873914E-02
DEBUG_STATS_RL:                Wvel (DYNAMICS)  min= -5.43636469636994E-05
DEBUG_STATS_RL:                Wvel (DYNAMICS)  max=  5.22788935574831E-05
DEBUG_STATS_RL:                Wvel (DYNAMICS) mean=  1.15417846277439E-08
DEBUG_STATS_RL:                Wvel (DYNAMICS) S.D.=  2.64746611410843E-06
DEBUG_STATS_RL:               Theta (DYNAMICS)  min= -3.46751164312462E+00
DEBUG_STATS_RL:               Theta (DYNAMICS)  max=  3.02462411177576E+01
DEBUG_STATS_RL:               Theta (DYNAMICS) mean=  6.18025038891435E+00
DEBUG_STATS_RL:               Theta (DYNAMICS) S.D.=  6.76147799126129E+00
DEBUG_STATS_RL:                Salt (DYNAMICS)  min=  3.14845895423960E+01
DEBUG_STATS_RL:                Salt (DYNAMICS)  max=  3.75568400756261E+01
DEBUG_STATS_RL:                Salt (DYNAMICS) mean=  3.46619898303264E+01
DEBUG_STATS_RL:                Salt (DYNAMICS) S.D.=  4.90706794126934E-01
DEBUG_STATS_RL:                  Gu (DYNAMICS)  min= -2.38431666022248E-01
DEBUG_STATS_RL:                  Gu (DYNAMICS)  max=  1.90167900626712E-01
DEBUG_STATS_RL:                  Gu (DYNAMICS) mean=  4.31214705625864E-03
DEBUG_STATS_RL:                  Gu (DYNAMICS) S.D.=  2.23892033673350E-02
DEBUG_STATS_RL:                  Gv (DYNAMICS)  min= -2.17343944840221E-01
DEBUG_STATS_RL:                  Gv (DYNAMICS)  max=  1.47313857254541E-01
DEBUG_STATS_RL:                  Gv (DYNAMICS) mean=  7.58977849251302E-04
DEBUG_STATS_RL:                  Gv (DYNAMICS) S.D.=  1.29536624132846E-02
(PID.TID 0000.0001) SOLVE_FOR_PRESSURE: putPmEinXvector =    F
DEBUG_STATS_RL:    cg2d_b (SOLVE_FOR_PRESSURE)  min= -1.17274595623943E+05
DEBUG_STATS_RL:    cg2d_b (SOLVE_FOR_PRESSURE)  max=  9.59480471436014E+04
DEBUG_STATS_RL:    cg2d_b (SOLVE_FOR_PRESSURE) mean= -7.55371143050829E-06
DEBUG_STATS_RL:    cg2d_b (SOLVE_FOR_PRESSURE) S.D.=  4.84047574737364E+04
 cg2d: Sum(rhs),rhsMax =  -2.86432420892879E-07  8.25293688142886E+00
(PID.TID 0000.0001)  cg2d: iter=     1 ; resid.=  7.57241025548699E-02
(PID.TID 0000.0001)  cg2d: iter=     2 ; resid.=  1.88682750845314E-02
(PID.TID 0000.0001)  cg2d: iter=     3 ; resid.=  5.52088459939703E-03
(PID.TID 0000.0001)  cg2d: iter=     4 ; resid.=  1.59149145955859E-03
(PID.TID 0000.0001)  cg2d: iter=     5 ; resid.=  4.98116977669776E-04
(PID.TID 0000.0001)  cg2d: iter=     6 ; resid.=  1.47719225905965E-04
(PID.TID 0000.0001)  cg2d: iter=     7 ; resid.=  4.34525606877861E-05
(PID.TID 0000.0001)  cg2d: iter=     8 ; resid.=  1.29040279751600E-05
(PID.TID 0000.0001)  cg2d: iter=     9 ; resid.=  4.14122702224593E-06
(PID.TID 0000.0001)  cg2d: iter=    10 ; resid.=  1.35767125450216E-06
(PID.TID 0000.0001)  cg2d: iter=    11 ; resid.=  4.45296009817065E-07
(PID.TID 0000.0001)  cg2d: iter=    12 ; resid.=  1.52865175825564E-07
(PID.TID 0000.0001)  cg2d: iter=    13 ; resid.=  5.59500536453697E-08
(PID.TID 0000.0001)  cg2d: iter=    14 ; resid.=  2.08325164656653E-08
(PID.TID 0000.0001)  cg2d: iter=    15 ; resid.=  6.73613115057732E-09
(PID.TID 0000.0001)  cg2d: iter=    16 ; resid.=  1.96524289938884E-09
(PID.TID 0000.0001)  cg2d: iter=    17 ; resid.=  5.69589319456671E-10
(PID.TID 0000.0001)  cg2d: iter=    18 ; resid.=  1.82169523311060E-10
(PID.TID 0000.0001)  cg2d: iter=    19 ; resid.=  5.86634001240826E-11
(PID.TID 0000.0001)  cg2d: iter=    20 ; resid.=  2.14994965577135E-11
(PID.TID 0000.0001)  cg2d: iter=    21 ; resid.=  8.60265351306852E-12
(PID.TID 0000.0001)  cg2d: iter=    22 ; resid.=  2.88525800188740E-12
(PID.TID 0000.0001)  cg2d: iter=    23 ; resid.=  8.35217345706568E-13
(PID.TID 0000.0001)  cg2d: iter=    24 ; resid.=  2.49612707991893E-13
(PID.TID 0000.0001)  cg2d: iter=    25 ; resid.=  8.00009456486961E-14
DEBUG_STATS_RL:    cg2d_x (SOLVE_FOR_PRESSURE)  min= -1.43340725541581E+01
DEBUG_STATS_RL:    cg2d_x (SOLVE_FOR_PRESSURE)  max=  9.40898429350062E+00
DEBUG_STATS_RL:    cg2d_x (SOLVE_FOR_PRESSURE) mean= -1.55513903788863E+00
DEBUG_STATS_RL:    cg2d_x (SOLVE_FOR_PRESSURE) S.D.=  6.26272862311171E+00
(PID.TID 0000.0001)      cg2d_init_res =   3.83451121212076E-01
(PID.TID 0000.0001)      cg2d_iters(min,last) =      -1      25
(PID.TID 0000.0001)      cg2d_last_res =   8.00009456486961E-14
(PID.TID 0000.0001) // =======================================================
(PID.TID 0000.0001) // Begin MONITOR dynamic field statistics
(PID.TID 0000.0001) // =======================================================
(PID.TID 0000.0001) %MON time_tsnumber                =                     1
(PID.TID 0000.0001) %MON time_secondsf                =   9.0000000000000E+02
(PID.TID 0000.0001) %MON dynstat_eta_max              =   9.5912174245674E-01
(PID.TID 0000.0001) %MON dynstat_eta_min              =  -1.4611694754493E+00
(PID.TID 0000.0001) %MON dynstat_eta_mean             =   8.2368395096404E-11
(PID.TID 0000.0001) %MON dynstat_eta_sd               =   5.6362487516869E-01
(PID.TID 0000.0001) %MON dynstat_eta_del2             =   1.0707611744975E-03
(PID.TID 0000.0001) %MON dynstat_uvel_max             =   1.9014173931713E-01
(PID.TID 0000.0001) %MON dynstat_uvel_min             =  -2.3752935460439E-01
(PID.TID 0000.0001) %MON dynstat_uvel_mean            =   1.8560974174589E-03
(PID.TID 0000.0001) %MON dynstat_uvel_sd              =   1.3061816323588E-02
(PID.TID 0000.0001) %MON dynstat_uvel_del2            =   4.9224880949589E-05
(PID.TID 0000.0001) %MON dynstat_vvel_max             =   1.4703240308685E-01
(PID.TID 0000.0001) %MON dynstat_vvel_min             =  -2.1691517746782E-01
(PID.TID 0000.0001) %MON dynstat_vvel_mean            =  -3.8178732728583E-04
(PID.TID 0000.0001) %MON dynstat_vvel_sd              =   7.4167023790666E-03
(PID.TID 0000.0001) %MON dynstat_vvel_del2            =   3.8641253176013E-05
(PID.TID 0000.0001) %MON dynstat_wvel_max             =   5.1427315970080E-05
(PID.TID 0000.0001) %MON dynstat_wvel_min             =  -7.7328988435824E-05
(PID.TID 0000.0001) %MON dynstat_wvel_mean            =   2.8731521973943E-16
(PID.TID 0000.0001) %MON dynstat_wvel_sd              =   3.4669126578701E-06
(PID.TID 0000.0001) %MON dynstat_wvel_del2            =   3.8082720498898E-08
(PID.TID 0000.0001) %MON dynstat_theta_max            =   3.0246241117758E+01
(PID.TID 0000.0001) %MON dynstat_theta_min            =  -3.4675116431246E+00
(PID.TID 0000.0001) %MON dynstat_theta_mean           =   3.8021187512228E+00
(PID.TID 0000.0001) %MON dynstat_theta_sd             =   4.5122719516828E+00
(PID.TID 0000.0001) %MON dynstat_theta_del2           =   2.5989958597679E-03
(PID.TID 0000.0001) %MON dynstat_salt_max             =   3.7556840075626E+01
(PID.TID 0000.0001) %MON dynstat_salt_min             =   3.1484589542396E+01
(PID.TID 0000.0001) %MON dynstat_salt_mean            =   3.4614647598010E+01
(PID.TID 0000.0001) %MON dynstat_salt_sd              =   3.1408675925501E-01
(PID.TID 0000.0001) %MON dynstat_salt_del2            =   4.0547233442654E-04
(PID.TID 0000.0001) %MON forcing_qnet_max             =   3.5106161316986E+02
(PID.TID 0000.0001) %MON forcing_qnet_min             =  -3.3217430683864E+02
(PID.TID 0000.0001) %MON forcing_qnet_mean            =  -8.2628564271626E+01
(PID.TID 0000.0001) %MON forcing_qnet_sd              =   9.8255467168891E+01
(PID.TID 0000.0001) %MON forcing_qnet_del2            =   5.8421366527623E-01
(PID.TID 0000.0001) %MON forcing_qsw_max              =   3.3121876763925E+01
(PID.TID 0000.0001) %MON forcing_qsw_min              =  -3.5303847682555E+02
(PID.TID 0000.0001) %MON forcing_qsw_mean             =  -1.9661044339220E+02
(PID.TID 0000.0001) %MON forcing_qsw_sd               =   7.3861093180743E+01
(PID.TID 0000.0001) %MON forcing_qsw_del2             =   3.3366459753839E-01
(PID.TID 0000.0001) %MON forcing_empmr_max            =   8.3197948087081E-04
(PID.TID 0000.0001) %MON forcing_empmr_min            =  -6.3499828181685E-04
(PID.TID 0000.0001) %MON forcing_empmr_mean           =  -1.4952499263767E-05
(PID.TID 0000.0001) %MON forcing_empmr_sd             =   4.3660914427327E-05
(PID.TID 0000.0001) %MON forcing_empmr_del2           =   8.2847703913337E-07
(PID.TID 0000.0001) %MON forcing_fu_max               =   1.3089536730952E-01
(PID.TID 0000.0001) %MON forcing_fu_min               =  -1.1231770189011E-01
(PID.TID 0000.0001) %MON forcing_fu_mean              =  -4.3352058263864E-03
(PID.TID 0000.0001) %MON forcing_fu_sd                =   4.0503766527623E-02
(PID.TID 0000.0001) %MON forcing_fu_del2              =   1.3967252795316E-04
(PID.TID 0000.0001) %MON forcing_fv_max               =   9.4384621287737E-02
(PID.TID 0000.0001) %MON forcing_fv_min               =  -8.4481130405443E-02
(PID.TID 0000.0001) %MON forcing_fv_mean              =  -3.3431885339760E-03
(PID.TID 0000.0001) %MON forcing_fv_sd                =   1.7498300049943E-02
(PID.TID 0000.0001) %MON forcing_fv_del2              =   8.2730185002158E-05
(PID.TID 0000.0001) %MON trAdv_CFL_u_max              =   6.9530366268499E-04
(PID.TID 0000.0001) %MON trAdv_CFL_v_max              =   6.2526062972989E-04
(PID.TID 0000.0001) %MON trAdv_CFL_w_max              =   3.0073132451988E-04
(PID.TID 0000.0001) %MON advcfl_uvel_max              =   6.9591613327273E-04
(PID.TID 0000.0001) %MON advcfl_vvel_max              =   6.2434281601193E-04
(PID.TID 0000.0001) %MON advcfl_wvel_max              =   2.7838435836897E-03
(PID.TID 0000.0001) %MON advcfl_W_hf_max              =   1.2654063613049E-03
(PID.TID 0000.0001) %MON pe_b_mean                    =   4.0943408053231E-04
(PID.TID 0000.0001) %MON ke_max                       =   3.1380473361485E-02
(PID.TID 0000.0001) %MON ke_mean                      =   1.0611987040119E-04
(PID.TID 0000.0001) %MON ke_vol                       =   1.2571476858570E+18
(PID.TID 0000.0001) %MON vort_r_min                   =  -9.1550924333453E-07
(PID.TID 0000.0001) %MON vort_r_max                   =   9.9125751049547E-07
(PID.TID 0000.0001) %MON vort_a_mean                  =  -2.4002453570026E-05
(PID.TID 0000.0001) %MON vort_a_sd                    =   7.3138176055498E-05
(PID.TID 0000.0001) %MON vort_p_mean                  =  -2.8585773838204E-05
(PID.TID 0000.0001) %MON vort_p_sd                    =   1.1453379817665E-04
(PID.TID 0000.0001) %MON surfExpan_theta_mean         =  -6.8833385036858E-06
(PID.TID 0000.0001) %MON surfExpan_salt_mean          =  -5.7018188781197E-07
(PID.TID 0000.0001) // =======================================================
(PID.TID 0000.0001) // End MONITOR dynamic field statistics
(PID.TID 0000.0001) // =======================================================
(PID.TID 0000.0001) // =======================================================
(PID.TID 0000.0001) // Begin MONITOR SEAICE statistics
(PID.TID 0000.0001) // =======================================================
(PID.TID 0000.0001) %MON seaice_tsnumber              =                     1
(PID.TID 0000.0001) %MON seaice_time_sec              =   9.0000000000000E+02
(PID.TID 0000.0001) %MON seaice_uice_max              =   4.0000000000000E-01
(PID.TID 0000.0001) %MON seaice_uice_min              =  -4.0000000000000E-01
(PID.TID 0000.0001) %MON seaice_uice_mean             =  -2.4291443579457E-02
(PID.TID 0000.0001) %MON seaice_uice_sd               =   2.2192377736463E-01
(PID.TID 0000.0001) %MON seaice_uice_del2             =   8.4297695837051E-04
(PID.TID 0000.0001) %MON seaice_vice_max              =   4.0000000000000E-01
(PID.TID 0000.0001) %MON seaice_vice_min              =  -3.9589721946173E-01
(PID.TID 0000.0001) %MON seaice_vice_mean             =  -1.3255827396631E-02
(PID.TID 0000.0001) %MON seaice_vice_sd               =   9.1433272476159E-02
(PID.TID 0000.0001) %MON seaice_vice_del2             =   5.0501387214140E-04
(PID.TID 0000.0001) %MON seaice_area_max              =   9.5000000000000E-01
(PID.TID 0000.0001) %MON seaice_area_min              =   0.0000000000000E+00
(PID.TID 0000.0001) %MON seaice_area_mean             =   4.7031435596433E-03
(PID.TID 0000.0001) %MON seaice_area_sd               =   6.6658699429993E-02
(PID.TID 0000.0001) %MON seaice_area_del2             =   1.9449014649076E-03
(PID.TID 0000.0001) %MON seaice_heff_max              =   1.0003316881242E+00
(PID.TID 0000.0001) %MON seaice_heff_min              =   0.0000000000000E+00
(PID.TID 0000.0001) %MON seaice_heff_mean             =   4.9487107612648E-03
(PID.TID 0000.0001) %MON seaice_heff_sd               =   7.0161146580617E-02
(PID.TID 0000.0001) %MON seaice_heff_del2             =   2.0478552770876E-03
(PID.TID 0000.0001) %MON seaice_hsnow_max             =   2.0009659414065E-01
(PID.TID 0000.0001) %MON seaice_hsnow_min             =   0.0000000000000E+00
(PID.TID 0000.0001) %MON seaice_hsnow_mean            =   9.8971248748309E-04
(PID.TID 0000.0001) %MON seaice_hsnow_sd              =   1.4034726609363E-02
(PID.TID 0000.0001) %MON seaice_hsnow_del2            =   4.0974328241504E-04
(PID.TID 0000.0001) // =======================================================
(PID.TID 0000.0001) // End MONITOR SEAICE statistics
(PID.TID 0000.0001) // =======================================================
(PID.TID 0000.0001) // =======================================================
(PID.TID 0000.0001) // Begin MONITOR ptracer field statistics
(PID.TID 0000.0001) // =======================================================
(PID.TID 0000.0001) %MON trcstat_ptracer01_max        =   2.4429509643404E+00
(PID.TID 0000.0001) %MON trcstat_ptracer01_min        =   1.6411735119814E+00
(PID.TID 0000.0001) %MON trcstat_ptracer01_mean       =   2.2619456301080E+00
(PID.TID 0000.0001) %MON trcstat_ptracer01_sd         =   1.0331289621643E-01
(PID.TID 0000.0001) %MON trcstat_ptracer01_del2       =   3.5366981603330E-05
(PID.TID 0000.0001) %MON trcstat_ptracer02_max        =   2.5617819796702E+00
(PID.TID 0000.0001) %MON trcstat_ptracer02_min        =   1.9500329648992E+00
(PID.TID 0000.0001) %MON trcstat_ptracer02_mean       =   2.3641949169805E+00
(PID.TID 0000.0001) %MON trcstat_ptracer02_sd         =   4.9629929437545E-02
(PID.TID 0000.0001) %MON trcstat_ptracer02_del2       =   2.3379319280587E-05
(PID.TID 0000.0001) %MON trcstat_ptracer03_max        =   3.2964255432840E-03
(PID.TID 0000.0001) %MON trcstat_ptracer03_min        =   4.8658422784445E-05
(PID.TID 0000.0001) %MON trcstat_ptracer03_mean       =   2.1265729355130E-03
(PID.TID 0000.0001) %MON trcstat_ptracer03_sd         =   6.9838211058871E-04
(PID.TID 0000.0001) %MON trcstat_ptracer03_del2       =   2.2274676121959E-07
(PID.TID 0000.0001) %MON trcstat_ptracer04_max        =   3.0026317100581E-04
(PID.TID 0000.0001) %MON trcstat_ptracer04_min        =  -1.8980989052298E-07
(PID.TID 0000.0001) %MON trcstat_ptracer04_mean       =   5.9486965324417E-06
(PID.TID 0000.0001) %MON trcstat_ptracer04_sd         =   2.6309766593085E-05
(PID.TID 0000.0001) %MON trcstat_ptracer04_del2       =   3.2501904245346E-08
(PID.TID 0000.0001) %MON trcstat_ptracer05_max        =   3.8399376917593E-01
(PID.TID 0000.0001) %MON trcstat_ptracer05_min        =   3.9749953563760E-03
(PID.TID 0000.0001) %MON trcstat_ptracer05_mean       =   1.6196385636822E-01
(PID.TID 0000.0001) %MON trcstat_ptracer05_sd         =   7.3415502580445E-02
(PID.TID 0000.0001) %MON trcstat_ptracer05_del2       =   3.1009209763066E-05
(PID.TID 0000.0001) // =======================================================
(PID.TID 0000.0001) // End MONITOR ptracers field statistics
(PID.TID 0000.0001) // =======================================================
(PID.TID 0000.0001) EXF_SET_FLD: processing field "apco2",  file: apCO2_2000
(PID.TID 0000.0001) EXF_SET_FLD:   myIter, count0, count1:         1     12      1
(PID.TID 0000.0001) EXF_SET_FLD:   first, changed, fac:   F   F   0.499663978E+00
(PID.TID 0000.0001) EXF_SET_UV: processing fields "uwind" & "vwind"
(PID.TID 0000.0001) EXF_SET_UV:   files: EIG_u10m_2000 & EIG_v10m_2000
(PID.TID 0000.0001) EXF_SET_UV:   myIter, count0, count1:         1     12      1
(PID.TID 0000.0001) EXF_SET_UV:   first, changed, fac:   F   F   0.499663978E+00
(PID.TID 0000.0001) EXF_SET_FLD: processing field "atemp",  file: EIG_tmp2m_degC_plus_ECCO_v4r1_ctrl_2000
(PID.TID 0000.0001) EXF_SET_FLD:   myIter, count0, count1:         1     12      1
(PID.TID 0000.0001) EXF_SET_FLD:   first, changed, fac:   F   F   0.499663978E+00
(PID.TID 0000.0001) EXF_SET_FLD: processing field "aqh",  file: EIG_spfh2m_plus_ECCO_v4r1_ctrl_2000
(PID.TID 0000.0001) EXF_SET_FLD:   myIter, count0, count1:         1     12      1
(PID.TID 0000.0001) EXF_SET_FLD:   first, changed, fac:   F   F   0.499663978E+00
(PID.TID 0000.0001) EXF_SET_FLD: processing field "precip",  file: EIG_rain_plus_ECCO_v4r1_ctrl_2000
(PID.TID 0000.0001) EXF_SET_FLD:   myIter, count0, count1:         1     12      1
(PID.TID 0000.0001) EXF_SET_FLD:   first, changed, fac:   F   F   0.499663978E+00
(PID.TID 0000.0001) EXF_SET_FLD: processing field "swdown",  file: EIG_dsw_plus_ECCO_v4r1_ctrl_2000
(PID.TID 0000.0001) EXF_SET_FLD:   myIter, count0, count1:         1     12      1
(PID.TID 0000.0001) EXF_SET_FLD:   first, changed, fac:   F   F   0.499663978E+00
(PID.TID 0000.0001) EXF_SET_FLD: processing field "lwdown",  file: EIG_dlw_plus_ECCO_v4r1_ctrl_2000
(PID.TID 0000.0001) EXF_SET_FLD:   myIter, count0, count1:         1     12      1
(PID.TID 0000.0001) EXF_SET_FLD:   first, changed, fac:   F   F   0.499663978E+00
(PID.TID 0000.0001) EXF_SET_FLD: processing field "runoff",  file: runoff-2d-Fekete-1deg-mon-V4-SMOOTH.bin
(PID.TID 0000.0001) EXF_SET_FLD:   myIter, count0, count1:         1     12      1
(PID.TID 0000.0001) EXF_SET_FLD:   first, changed, fac:   F   F   0.499663978E+00
(PID.TID 0000.0001) // =======================================================
(PID.TID 0000.0001) // Begin MONITOR EXF statistics
(PID.TID 0000.0001) // =======================================================
(PID.TID 0000.0001) %MON exf_tsnumber                 =                     1
(PID.TID 0000.0001) %MON exf_time_sec                 =   9.0000000000000E+02
(PID.TID 0000.0001) %MON exf_ustress_max              =   1.3196119875271E-01
(PID.TID 0000.0001) %MON exf_ustress_min              =  -1.1242532612141E-01
(PID.TID 0000.0001) %MON exf_ustress_mean             =  -4.4183650237821E-03
(PID.TID 0000.0001) %MON exf_ustress_sd               =   4.0088693643650E-02
(PID.TID 0000.0001) %MON exf_ustress_del2             =   1.4491160112435E-04
(PID.TID 0000.0001) %MON exf_vstress_max              =   9.9477248911774E-02
(PID.TID 0000.0001) %MON exf_vstress_min              =  -1.0047995426916E-01
(PID.TID 0000.0001) %MON exf_vstress_mean             =  -3.5072942453062E-03
(PID.TID 0000.0001) %MON exf_vstress_sd               =   1.8015526479886E-02
(PID.TID 0000.0001) %MON exf_vstress_del2             =   9.7291042366421E-05
(PID.TID 0000.0001) %MON exf_hflux_max                =   4.1332136522229E+02
(PID.TID 0000.0001) %MON exf_hflux_min                =  -3.3217138111520E+02
(PID.TID 0000.0001) %MON exf_hflux_mean               =  -8.1856283093647E+01
(PID.TID 0000.0001) %MON exf_hflux_sd                 =   1.0068396588909E+02
(PID.TID 0000.0001) %MON exf_hflux_del2               =   7.3312994929196E-01
(PID.TID 0000.0001) %MON exf_sflux_max                =   8.5103917079786E-08
(PID.TID 0000.0001) %MON exf_sflux_min                =  -6.3510783118475E-07
(PID.TID 0000.0001) %MON exf_sflux_mean               =  -1.5666353672064E-08
(PID.TID 0000.0001) %MON exf_sflux_sd                 =   3.7495711031127E-08
(PID.TID 0000.0001) %MON exf_sflux_del2               =   3.5165440948934E-10
(PID.TID 0000.0001) %MON exf_uwind_max                =   9.5221420379325E+00
(PID.TID 0000.0001) %MON exf_uwind_min                =  -8.7610262426294E+00
(PID.TID 0000.0001) %MON exf_uwind_mean               =  -4.9433697846342E-01
(PID.TID 0000.0001) %MON exf_uwind_sd                 =   4.4178643303446E+00
(PID.TID 0000.0001) %MON exf_uwind_del2               =   1.2108473152453E-02
(PID.TID 0000.0001) %MON exf_vwind_max                =   8.7165512925985E+00
(PID.TID 0000.0001) %MON exf_vwind_min                =  -6.9950967856611E+00
(PID.TID 0000.0001) %MON exf_vwind_mean               =  -3.7878625764585E-01
(PID.TID 0000.0001) %MON exf_vwind_sd                 =   2.2079401584422E+00
(PID.TID 0000.0001) %MON exf_vwind_del2               =   9.5077691300582E-03
(PID.TID 0000.0001) %MON exf_wspeed_max               =   9.5377432210038E+00
(PID.TID 0000.0001) %MON exf_wspeed_min               =   4.7484938982311E-02
(PID.TID 0000.0001) %MON exf_wspeed_mean              =   4.4776767020809E+00
(PID.TID 0000.0001) %MON exf_wspeed_sd                =   2.1750366464712E+00
(PID.TID 0000.0001) %MON exf_wspeed_del2              =   2.6390471190726E-02
(PID.TID 0000.0001) %MON exf_atemp_max                =   3.0188417195774E+02
(PID.TID 0000.0001) %MON exf_atemp_min                =   2.4477331975865E+02
(PID.TID 0000.0001) %MON exf_atemp_mean               =   2.9041290362890E+02
(PID.TID 0000.0001) %MON exf_atemp_sd                 =   9.7907742294219E+00
(PID.TID 0000.0001) %MON exf_atemp_del2               =   9.0505688564889E-02
(PID.TID 0000.0001) %MON exf_aqh_max                  =   1.9838468383108E-02
(PID.TID 0000.0001) %MON exf_aqh_min                  =   3.5629863771011E-04
(PID.TID 0000.0001) %MON exf_aqh_mean                 =   1.1235105120118E-02
(PID.TID 0000.0001) %MON exf_aqh_sd                   =   5.1803785972937E-03
(PID.TID 0000.0001) %MON exf_aqh_del2                 =   5.8601920244329E-05
(PID.TID 0000.0001) %MON exf_lwflux_max               =   1.5496845215624E+02
(PID.TID 0000.0001) %MON exf_lwflux_min               =   4.3026355371829E+00
(PID.TID 0000.0001) %MON exf_lwflux_mean              =   4.1309710540513E+01
(PID.TID 0000.0001) %MON exf_lwflux_sd                =   1.3587604736439E+01
(PID.TID 0000.0001) %MON exf_lwflux_del2              =   1.9930862142384E-01
(PID.TID 0000.0001) %MON exf_evap_max                 =   8.5132891741604E-08
(PID.TID 0000.0001) %MON exf_evap_min                 =  -1.2832510829439E-08
(PID.TID 0000.0001) %MON exf_evap_mean                =   2.6032113983559E-08
(PID.TID 0000.0001) %MON exf_evap_sd                  =   1.7974540660662E-08
(PID.TID 0000.0001) %MON exf_evap_del2                =   1.6639137681769E-10
(PID.TID 0000.0001) %MON exf_precip_max               =   1.4863271259625E-07
(PID.TID 0000.0001) %MON exf_precip_min               =  -8.5448440998468E-09
(PID.TID 0000.0001) %MON exf_precip_mean              =   3.9997069343239E-08
(PID.TID 0000.0001) %MON exf_precip_sd                =   2.9094014132077E-08
(PID.TID 0000.0001) %MON exf_precip_del2              =   3.1034184476083E-10
(PID.TID 0000.0001) %MON exf_swflux_max               =   3.3124034508282E+01
(PID.TID 0000.0001) %MON exf_swflux_min               =  -3.5303700717653E+02
(PID.TID 0000.0001) %MON exf_swflux_mean              =  -1.9692557306406E+02
(PID.TID 0000.0001) %MON exf_swflux_sd                =   7.3606517896627E+01
(PID.TID 0000.0001) %MON exf_swflux_del2              =   9.3067939996925E-01
(PID.TID 0000.0001) %MON exf_swdown_max               =   3.8080965467192E+02
(PID.TID 0000.0001) %MON exf_swdown_min               =  -4.7320049297545E+01
(PID.TID 0000.0001) %MON exf_swdown_mean              =   2.1343087754549E+02
(PID.TID 0000.0001) %MON exf_swdown_sd                =   7.8894496861616E+01
(PID.TID 0000.0001) %MON exf_swdown_del2              =   1.0071702401242E+00
(PID.TID 0000.0001) %MON exf_lwdown_max               =   4.4360662763921E+02
(PID.TID 0000.0001) %MON exf_lwdown_min               =   1.5698751102173E+02
(PID.TID 0000.0001) %MON exf_lwdown_mean              =   3.6918899201488E+02
(PID.TID 0000.0001) %MON exf_lwdown_sd                =   5.1750740702495E+01
(PID.TID 0000.0001) %MON exf_lwdown_del2              =   1.5869248827838E+00
(PID.TID 0000.0001) %MON exf_runoff_max               =   5.5091491220202E-07
(PID.TID 0000.0001) %MON exf_runoff_min               =   0.0000000000000E+00
(PID.TID 0000.0001) %MON exf_runoff_mean              =   1.7013983123851E-09
(PID.TID 0000.0001) %MON exf_runoff_sd                =   1.1340821728537E-08
(PID.TID 0000.0001) %MON exf_runoff_del2              =   1.2650195299671E-10
(PID.TID 0000.0001) %MON exf_apco2_max                =   3.7074027557266E-04
(PID.TID 0000.0001) %MON exf_apco2_min                =   3.6819594783222E-04
(PID.TID 0000.0001) %MON exf_apco2_mean               =   3.6882178432298E-04
(PID.TID 0000.0001) %MON exf_apco2_sd                 =   5.2252448442491E-07
(PID.TID 0000.0001) %MON exf_apco2_del2               =   1.5223087337942E-06
(PID.TID 0000.0001) // =======================================================
(PID.TID 0000.0001) // End MONITOR EXF statistics
(PID.TID 0000.0001) // =======================================================
 EXTERNAL_FIELDS_LOAD,         1 : iP,iLd,i0,i1=   12    1   12    1 ; Wght=  0.4996527778  0.5003472222
 EXTERNAL_FIELDS_LOAD: (fu0,1),fu,fv=  0.0000E+00  0.0000E+00 -8.5165E-04  2.4537E-02
 EXTERNAL_FIELDS_LOAD: SST,SSS,Q,E-P=  0.0000E+00  0.0000E+00 -1.4151E+02 -4.1138E-05
 DIC_FIELDS_LOAD,         1 : iP,iLd,i0,i1=   12    1   12    1 ; Wght=  0.4996527778  0.5003472222
DEBUG_STATS_RL:          Uvel (THERMODYNAMICS)  min= -2.37529354604392E-01
DEBUG_STATS_RL:          Uvel (THERMODYNAMICS)  max=  1.90141739317133E-01
DEBUG_STATS_RL:          Uvel (THERMODYNAMICS) mean=  4.32974687350610E-03
DEBUG_STATS_RL:          Uvel (THERMODYNAMICS) S.D.=  2.22465626934295E-02
DEBUG_STATS_RL:          Vvel (THERMODYNAMICS)  min= -2.16915177467823E-01
DEBUG_STATS_RL:          Vvel (THERMODYNAMICS)  max=  1.47032403086852E-01
DEBUG_STATS_RL:          Vvel (THERMODYNAMICS) mean= -2.61599920868152E-04
DEBUG_STATS_RL:          Vvel (THERMODYNAMICS) S.D.=  1.29444675605005E-02
DEBUG_STATS_RL:          Wvel (THERMODYNAMICS)  min= -7.73289884358239E-05
DEBUG_STATS_RL:          Wvel (THERMODYNAMICS)  max=  5.14273159700798E-05
DEBUG_STATS_RL:          Wvel (THERMODYNAMICS) mean=  1.09069933302274E-07
DEBUG_STATS_RL:          Wvel (THERMODYNAMICS) S.D.=  4.79739431783307E-06
DEBUG_STATS_RL:         Theta (THERMODYNAMICS)  min= -3.46748056779152E+00
DEBUG_STATS_RL:         Theta (THERMODYNAMICS)  max=  3.02459760967899E+01
DEBUG_STATS_RL:         Theta (THERMODYNAMICS) mean=  6.18028327354469E+00
DEBUG_STATS_RL:         Theta (THERMODYNAMICS) S.D.=  6.76150146742396E+00
DEBUG_STATS_RL:          Salt (THERMODYNAMICS)  min=  3.14845900453524E+01
DEBUG_STATS_RL:          Salt (THERMODYNAMICS)  max=  3.75568210357124E+01
DEBUG_STATS_RL:          Salt (THERMODYNAMICS) mean=  3.46619902619048E+01
DEBUG_STATS_RL:          Salt (THERMODYNAMICS) S.D.=  4.90704346576841E-01
DEBUG_STATS_RL:                   PTRACER.0001  min=  1.64117049799608E+00
DEBUG_STATS_RL:                   PTRACER.0001  max=  2.44295095496315E+00
DEBUG_STATS_RL:                   PTRACER.0001 mean=  2.19530544676565E+00
DEBUG_STATS_RL:                   PTRACER.0001 S.D.=  1.33210860752934E-01
DEBUG_STATS_RL:                   GNm1TRC.0001  min=  0.00000000000000E+00
DEBUG_STATS_RL:                   GNm1TRC.0001  max=  0.00000000000000E+00
DEBUG_STATS_RL:                   GNm1TRC.0001 mean=  0.00000000000000E+00
DEBUG_STATS_RL:                   GNm1TRC.0001 S.D.=  0.00000000000000E+00
DEBUG_STATS_RL:                   PTRACER.0002  min=  1.95002951622573E+00
DEBUG_STATS_RL:                   PTRACER.0002  max=  2.56178023194837E+00
DEBUG_STATS_RL:                   PTRACER.0002 mean=  2.33903778082057E+00
DEBUG_STATS_RL:                   PTRACER.0002 S.D.=  6.29568972115882E-02
DEBUG_STATS_RL:                   GNm1TRC.0002  min=  0.00000000000000E+00
DEBUG_STATS_RL:                   GNm1TRC.0002  max=  0.00000000000000E+00
DEBUG_STATS_RL:                   GNm1TRC.0002 mean=  0.00000000000000E+00
DEBUG_STATS_RL:                   GNm1TRC.0002 S.D.=  0.00000000000000E+00
DEBUG_STATS_RL:                   PTRACER.0003  min=  4.86604144442847E-05
DEBUG_STATS_RL:                   PTRACER.0003  max=  3.29642522077754E-03
DEBUG_STATS_RL:                   PTRACER.0003 mean=  1.74938608620199E-03
DEBUG_STATS_RL:                   PTRACER.0003 S.D.=  8.38788626433492E-04
DEBUG_STATS_RL:                   GNm1TRC.0003  min=  0.00000000000000E+00
DEBUG_STATS_RL:                   GNm1TRC.0003  max=  0.00000000000000E+00
DEBUG_STATS_RL:                   GNm1TRC.0003 mean=  0.00000000000000E+00
DEBUG_STATS_RL:                   GNm1TRC.0003 S.D.=  0.00000000000000E+00
DEBUG_STATS_RL:                   PTRACER.0004  min= -1.89804125788241E-07
DEBUG_STATS_RL:                   PTRACER.0004  max=  3.00256622790784E-04
DEBUG_STATS_RL:                   PTRACER.0004 mean=  2.59068910651913E-05
DEBUG_STATS_RL:                   PTRACER.0004 S.D.=  5.37041642501084E-05
DEBUG_STATS_RL:                   GNm1TRC.0004  min=  0.00000000000000E+00
DEBUG_STATS_RL:                   GNm1TRC.0004  max=  0.00000000000000E+00
DEBUG_STATS_RL:                   GNm1TRC.0004 mean=  0.00000000000000E+00
DEBUG_STATS_RL:                   GNm1TRC.0004 S.D.=  0.00000000000000E+00
DEBUG_STATS_RL:                   PTRACER.0005  min=  3.97516184938927E-03
DEBUG_STATS_RL:                   PTRACER.0005  max=  3.83988919079450E-01
DEBUG_STATS_RL:                   PTRACER.0005 mean=  1.88096863450796E-01
DEBUG_STATS_RL:                   PTRACER.0005 S.D.=  7.98037437571220E-02
DEBUG_STATS_RL:                   GNm1TRC.0005  min=  0.00000000000000E+00
DEBUG_STATS_RL:                   GNm1TRC.0005  max=  0.00000000000000E+00
DEBUG_STATS_RL:                   GNm1TRC.0005 mean=  0.00000000000000E+00
DEBUG_STATS_RL:                   GNm1TRC.0005 S.D.=  0.00000000000000E+00
DEBUG_STATS_RL:                EtaN (DYNAMICS)  min= -1.46116947544935E+00
DEBUG_STATS_RL:                EtaN (DYNAMICS)  max=  9.59121742456740E-01
DEBUG_STATS_RL:                EtaN (DYNAMICS) mean= -1.58525895809239E-01
DEBUG_STATS_RL:                EtaN (DYNAMICS) S.D.=  6.38402510001194E-01
DEBUG_STATS_RL:                Uvel (DYNAMICS)  min= -2.37529354604392E-01
DEBUG_STATS_RL:                Uvel (DYNAMICS)  max=  1.90141739317133E-01
DEBUG_STATS_RL:                Uvel (DYNAMICS) mean=  4.32974687350610E-03
DEBUG_STATS_RL:                Uvel (DYNAMICS) S.D.=  2.22465626934295E-02
DEBUG_STATS_RL:                Vvel (DYNAMICS)  min= -2.16915177467823E-01
DEBUG_STATS_RL:                Vvel (DYNAMICS)  max=  1.47032403086852E-01
DEBUG_STATS_RL:                Vvel (DYNAMICS) mean= -2.61599920868152E-04
DEBUG_STATS_RL:                Vvel (DYNAMICS) S.D.=  1.29444675605005E-02
DEBUG_STATS_RL:                Wvel (DYNAMICS)  min= -7.73289884358239E-05
DEBUG_STATS_RL:                Wvel (DYNAMICS)  max=  5.14273159700798E-05
DEBUG_STATS_RL:                Wvel (DYNAMICS) mean=  1.09069933302274E-07
DEBUG_STATS_RL:                Wvel (DYNAMICS) S.D.=  4.79739431783307E-06
DEBUG_STATS_RL:               Theta (DYNAMICS)  min= -3.46748056779152E+00
DEBUG_STATS_RL:               Theta (DYNAMICS)  max=  3.02459760967899E+01
DEBUG_STATS_RL:               Theta (DYNAMICS) mean=  6.18028327354469E+00
DEBUG_STATS_RL:               Theta (DYNAMICS) S.D.=  6.76150146742396E+00
DEBUG_STATS_RL:                Salt (DYNAMICS)  min=  3.14845900453524E+01
DEBUG_STATS_RL:                Salt (DYNAMICS)  max=  3.75568210357124E+01
DEBUG_STATS_RL:                Salt (DYNAMICS) mean=  3.46619902619048E+01
DEBUG_STATS_RL:                Salt (DYNAMICS) S.D.=  4.90704346576841E-01
DEBUG_STATS_RL:                  Gu (DYNAMICS)  min= -2.37450625979604E-01
DEBUG_STATS_RL:                  Gu (DYNAMICS)  max=  1.90372832320529E-01
DEBUG_STATS_RL:                  Gu (DYNAMICS) mean=  4.29396869377999E-03
DEBUG_STATS_RL:                  Gu (DYNAMICS) S.D.=  2.23500083903715E-02
DEBUG_STATS_RL:                  Gv (DYNAMICS)  min= -2.16845475113687E-01
DEBUG_STATS_RL:                  Gv (DYNAMICS)  max=  1.45076205029425E-01
DEBUG_STATS_RL:                  Gv (DYNAMICS) mean=  3.00619656458544E-04
DEBUG_STATS_RL:                  Gv (DYNAMICS) S.D.=  1.29273136717127E-02
DEBUG_STATS_RL:    cg2d_b (SOLVE_FOR_PRESSURE)  min= -1.15725688196997E+05
DEBUG_STATS_RL:    cg2d_b (SOLVE_FOR_PRESSURE)  max=  9.47299008839300E+04
DEBUG_STATS_RL:    cg2d_b (SOLVE_FOR_PRESSURE) mean= -7.56414540569408E-06
DEBUG_STATS_RL:    cg2d_b (SOLVE_FOR_PRESSURE) S.D.=  4.81879294339539E+04
 cg2d: Sum(rhs),rhsMax =  -2.90667880875617E-07  8.14393599200562E+00
(PID.TID 0000.0001)  cg2d: iter=     1 ; resid.=  1.07039659467552E-01
(PID.TID 0000.0001)  cg2d: iter=     2 ; resid.=  2.80265181291141E-02
(PID.TID 0000.0001)  cg2d: iter=     3 ; resid.=  8.35437449245979E-03
(PID.TID 0000.0001)  cg2d: iter=     4 ; resid.=  2.45644746564514E-03
(PID.TID 0000.0001)  cg2d: iter=     5 ; resid.=  7.84503451839373E-04
(PID.TID 0000.0001)  cg2d: iter=     6 ; resid.=  2.37550859521784E-04
(PID.TID 0000.0001)  cg2d: iter=     7 ; resid.=  7.00599254236939E-05
(PID.TID 0000.0001)  cg2d: iter=     8 ; resid.=  2.40251351210712E-05
(PID.TID 0000.0001)  cg2d: iter=     9 ; resid.=  8.71801246685379E-06
(PID.TID 0000.0001)  cg2d: iter=    10 ; resid.=  3.08116791350588E-06
(PID.TID 0000.0001)  cg2d: iter=    11 ; resid.=  1.12385145239460E-06
(PID.TID 0000.0001)  cg2d: iter=    12 ; resid.=  3.83592727190956E-07
(PID.TID 0000.0001)  cg2d: iter=    13 ; resid.=  1.26046104441848E-07
(PID.TID 0000.0001)  cg2d: iter=    14 ; resid.=  3.89818235262313E-08
(PID.TID 0000.0001)  cg2d: iter=    15 ; resid.=  1.11537170799336E-08
(PID.TID 0000.0001)  cg2d: iter=    16 ; resid.=  3.11030805669010E-09
(PID.TID 0000.0001)  cg2d: iter=    17 ; resid.=  9.13518576763777E-10
(PID.TID 0000.0001)  cg2d: iter=    18 ; resid.=  2.95080428464132E-10
(PID.TID 0000.0001)  cg2d: iter=    19 ; resid.=  9.41199775975749E-11
(PID.TID 0000.0001)  cg2d: iter=    20 ; resid.=  3.63223368426464E-11
(PID.TID 0000.0001)  cg2d: iter=    21 ; resid.=  1.38274847128777E-11
(PID.TID 0000.0001)  cg2d: iter=    22 ; resid.=  4.18721116569116E-12
(PID.TID 0000.0001)  cg2d: iter=    23 ; resid.=  1.22129547479971E-12
(PID.TID 0000.0001)  cg2d: iter=    24 ; resid.=  3.96367450990116E-13
(PID.TID 0000.0001)  cg2d: iter=    25 ; resid.=  1.25721357593023E-13
(PID.TID 0000.0001)  cg2d: iter=    26 ; resid.=  4.22810083060219E-14
DEBUG_STATS_RL:    cg2d_x (SOLVE_FOR_PRESSURE)  min= -1.41865652214479E+01
DEBUG_STATS_RL:    cg2d_x (SOLVE_FOR_PRESSURE)  max=  9.29173234559975E+00
DEBUG_STATS_RL:    cg2d_x (SOLVE_FOR_PRESSURE) mean= -1.55152466016765E+00
DEBUG_STATS_RL:    cg2d_x (SOLVE_FOR_PRESSURE) S.D.=  6.23617900377764E+00
(PID.TID 0000.0001)      cg2d_init_res =   4.71986811449198E-01
(PID.TID 0000.0001)      cg2d_iters(min,last) =      -1      26
(PID.TID 0000.0001)      cg2d_last_res =   4.22810083060219E-14
(PID.TID 0000.0001) // =======================================================
(PID.TID 0000.0001) // Begin MONITOR dynamic field statistics
(PID.TID 0000.0001) // =======================================================
(PID.TID 0000.0001) %MON time_tsnumber                =                     2
(PID.TID 0000.0001) %MON time_secondsf                =   1.8000000000000E+03
(PID.TID 0000.0001) %MON dynstat_eta_max              =   9.4716945418958E-01
(PID.TID 0000.0001) %MON dynstat_eta_min              =  -1.4461330500966E+00
(PID.TID 0000.0001) %MON dynstat_eta_mean             =   8.2481982439538E-11
(PID.TID 0000.0001) %MON dynstat_eta_sd               =   5.6131067245337E-01
(PID.TID 0000.0001) %MON dynstat_eta_del2             =   9.7631170601624E-04
(PID.TID 0000.0001) %MON dynstat_uvel_max             =   1.9034575140977E-01
(PID.TID 0000.0001) %MON dynstat_uvel_min             =  -2.3655316610877E-01
(PID.TID 0000.0001) %MON dynstat_uvel_mean            =   1.8495021346247E-03
(PID.TID 0000.0001) %MON dynstat_uvel_sd              =   1.3039246503759E-02
(PID.TID 0000.0001) %MON dynstat_uvel_del2            =   4.9428152066991E-05
(PID.TID 0000.0001) %MON dynstat_vvel_max             =   1.4479200199569E-01
(PID.TID 0000.0001) %MON dynstat_vvel_min             =  -2.1639226076727E-01
(PID.TID 0000.0001) %MON dynstat_vvel_mean            =  -5.8495279299684E-04
(PID.TID 0000.0001) %MON dynstat_vvel_sd              =   7.6338062785299E-03
(PID.TID 0000.0001) %MON dynstat_vvel_del2            =   3.9520908922857E-05
(PID.TID 0000.0001) %MON dynstat_wvel_max             =   7.1310166547482E-05
(PID.TID 0000.0001) %MON dynstat_wvel_min             =  -9.1448078185413E-05
(PID.TID 0000.0001) %MON dynstat_wvel_mean            =   1.6739732622763E-16
(PID.TID 0000.0001) %MON dynstat_wvel_sd              =   4.5873218907963E-06
(PID.TID 0000.0001) %MON dynstat_wvel_del2            =   4.6760391931535E-08
(PID.TID 0000.0001) %MON dynstat_theta_max            =   3.0245976096790E+01
(PID.TID 0000.0001) %MON dynstat_theta_min            =  -3.4674805677915E+00
(PID.TID 0000.0001) %MON dynstat_theta_mean           =   3.8021258935135E+00
(PID.TID 0000.0001) %MON dynstat_theta_sd             =   4.5122852619755E+00
(PID.TID 0000.0001) %MON dynstat_theta_del2           =   2.5989375565275E-03
(PID.TID 0000.0001) %MON dynstat_salt_max             =   3.7556821035712E+01
(PID.TID 0000.0001) %MON dynstat_salt_min             =   3.1484590045352E+01
(PID.TID 0000.0001) %MON dynstat_salt_mean            =   3.4614647682470E+01
(PID.TID 0000.0001) %MON dynstat_salt_sd              =   3.1408622874748E-01
(PID.TID 0000.0001) %MON dynstat_salt_del2            =   4.0545628427837E-04
(PID.TID 0000.0001) %MON forcing_qnet_max             =   3.5073840884534E+02
(PID.TID 0000.0001) %MON forcing_qnet_min             =  -3.3217138111520E+02
(PID.TID 0000.0001) %MON forcing_qnet_mean            =  -8.2620726446563E+01
(PID.TID 0000.0001) %MON forcing_qnet_sd              =   9.8280740889820E+01
(PID.TID 0000.0001) %MON forcing_qnet_del2            =   5.8624217286591E-01
(PID.TID 0000.0001) %MON forcing_qsw_max              =   3.3124034508282E+01
(PID.TID 0000.0001) %MON forcing_qsw_min              =  -3.5303700717653E+02
(PID.TID 0000.0001) %MON forcing_qsw_mean             =  -1.9660994328121E+02
(PID.TID 0000.0001) %MON forcing_qsw_sd               =   7.3859453569794E+01
(PID.TID 0000.0001) %MON forcing_qsw_del2             =   3.3355388307514E-01
(PID.TID 0000.0001) %MON forcing_empmr_max            =   8.3055189719459E-04
(PID.TID 0000.0001) %MON forcing_empmr_min            =  -6.3510783118475E-04
(PID.TID 0000.0001) %MON forcing_empmr_mean           =  -1.4966980484897E-05
(PID.TID 0000.0001) %MON forcing_empmr_sd             =   4.3544571111015E-05
(PID.TID 0000.0001) %MON forcing_empmr_del2           =   8.1605948162071E-07
(PID.TID 0000.0001) %MON forcing_fu_max               =   1.3088508857099E-01
(PID.TID 0000.0001) %MON forcing_fu_min               =  -1.1232360332989E-01
(PID.TID 0000.0001) %MON forcing_fu_mean              =  -4.3484278349094E-03
(PID.TID 0000.0001) %MON forcing_fu_sd                =   4.0503244989635E-02
(PID.TID 0000.0001) %MON forcing_fu_del2              =   1.3934732888833E-04
(PID.TID 0000.0001) %MON forcing_fv_max               =   9.4386563591285E-02
(PID.TID 0000.0001) %MON forcing_fv_min               =  -8.4880449940308E-02
(PID.TID 0000.0001) %MON forcing_fv_mean              =  -3.3883847879559E-03
(PID.TID 0000.0001) %MON forcing_fv_sd                =   1.7611619624832E-02
(PID.TID 0000.0001) %MON forcing_fv_del2              =   8.3862971302203E-05
(PID.TID 0000.0001) %MON trAdv_CFL_u_max              =   6.9598600733348E-04
(PID.TID 0000.0001) %MON trAdv_CFL_v_max              =   6.2384126924382E-04
(PID.TID 0000.0001) %MON trAdv_CFL_w_max              =   1.2654063613049E-03
(PID.TID 0000.0001) %MON advcfl_uvel_max              =   7.1149382987493E-04
(PID.TID 0000.0001) %MON advcfl_vvel_max              =   6.2283771485130E-04
(PID.TID 0000.0001) %MON advcfl_wvel_max              =   3.2921308146749E-03
(PID.TID 0000.0001) %MON advcfl_W_hf_max              =   1.4679173824467E-03
(PID.TID 0000.0001) %MON pe_b_mean                    =   4.0607876996346E-04
(PID.TID 0000.0001) %MON ke_max                       =   3.1239922223345E-02
(PID.TID 0000.0001) %MON ke_mean                      =   1.0742571745037E-04
(PID.TID 0000.0001) %MON ke_vol                       =   1.2571476858570E+18
(PID.TID 0000.0001) %MON vort_r_min                   =  -9.0718439315792E-07
(PID.TID 0000.0001) %MON vort_r_max                   =   9.9382927955031E-07
(PID.TID 0000.0001) %MON vort_a_mean                  =  -2.4002453570026E-05
(PID.TID 0000.0001) %MON vort_a_sd                    =   7.3138175419521E-05
(PID.TID 0000.0001) %MON vort_p_mean                  =  -2.8585773838204E-05
(PID.TID 0000.0001) %MON vort_p_sd                    =   1.1453381953383E-04
(PID.TID 0000.0001) %MON surfExpan_theta_mean         =  -1.2695862202466E-05
(PID.TID 0000.0001) %MON surfExpan_salt_mean          =  -1.0887840489684E-06
(PID.TID 0000.0001) // =======================================================
(PID.TID 0000.0001) // End MONITOR dynamic field statistics
(PID.TID 0000.0001) // =======================================================
(PID.TID 0000.0001) // =======================================================
(PID.TID 0000.0001) // Begin MONITOR SEAICE statistics
(PID.TID 0000.0001) // =======================================================
(PID.TID 0000.0001) %MON seaice_tsnumber              =                     2
(PID.TID 0000.0001) %MON seaice_time_sec              =   1.8000000000000E+03
(PID.TID 0000.0001) %MON seaice_uice_max              =   3.0275737954726E-01
(PID.TID 0000.0001) %MON seaice_uice_min              =  -3.8531779639081E-01
(PID.TID 0000.0001) %MON seaice_uice_mean             =  -2.6317130410568E-03
(PID.TID 0000.0001) %MON seaice_uice_sd               =   1.0284383359154E-01
(PID.TID 0000.0001) %MON seaice_uice_del2             =   5.5812864278934E-04
(PID.TID 0000.0001) %MON seaice_vice_max              =   1.2779831134826E-01
(PID.TID 0000.0001) %MON seaice_vice_min              =  -2.7274776939506E-01
(PID.TID 0000.0001) %MON seaice_vice_mean             =  -5.8626600830315E-03
(PID.TID 0000.0001) %MON seaice_vice_sd               =   3.8553426052548E-02
(PID.TID 0000.0001) %MON seaice_vice_del2             =   3.3259938534488E-04
(PID.TID 0000.0001) %MON seaice_area_max              =   9.5000000000000E-01
(PID.TID 0000.0001) %MON seaice_area_min              =   0.0000000000000E+00
(PID.TID 0000.0001) %MON seaice_area_mean             =   4.7062409445010E-03
(PID.TID 0000.0001) %MON seaice_area_sd               =   6.6651740135889E-02
(PID.TID 0000.0001) %MON seaice_area_del2             =   1.9431691237004E-03
(PID.TID 0000.0001) %MON seaice_heff_max              =   1.0003740496349E+00
(PID.TID 0000.0001) %MON seaice_heff_min              =   0.0000000000000E+00
(PID.TID 0000.0001) %MON seaice_heff_mean             =   4.9494216640536E-03
(PID.TID 0000.0001) %MON seaice_heff_sd               =   7.0154321904179E-02
(PID.TID 0000.0001) %MON seaice_heff_del2             =   2.0471276844900E-03
(PID.TID 0000.0001) %MON seaice_hsnow_max             =   2.0018009727248E-01
(PID.TID 0000.0001) %MON seaice_hsnow_min             =   0.0000000000000E+00
(PID.TID 0000.0001) %MON seaice_hsnow_mean            =   9.8987884175262E-04
(PID.TID 0000.0001) %MON seaice_hsnow_sd              =   1.4035853620177E-02
(PID.TID 0000.0001) %MON seaice_hsnow_del2            =   4.0972635431028E-04
(PID.TID 0000.0001) // =======================================================
(PID.TID 0000.0001) // End MONITOR SEAICE statistics
(PID.TID 0000.0001) // =======================================================
(PID.TID 0000.0001) // =======================================================
(PID.TID 0000.0001) // Begin MONITOR ptracer field statistics
(PID.TID 0000.0001) // =======================================================
(PID.TID 0000.0001) %MON trcstat_ptracer01_max        =   2.4429509635315E+00
(PID.TID 0000.0001) %MON trcstat_ptracer01_min        =   1.6411702021413E+00
(PID.TID 0000.0001) %MON trcstat_ptracer01_mean       =   2.2619455987359E+00
(PID.TID 0000.0001) %MON trcstat_ptracer01_sd         =   1.0331295836769E-01
(PID.TID 0000.0001) %MON trcstat_ptracer01_del2       =   3.5367122333914E-05
(PID.TID 0000.0001) %MON trcstat_ptracer02_max        =   2.5617802161154E+00
(PID.TID 0000.0001) %MON trcstat_ptracer02_min        =   1.9500295212835E+00
(PID.TID 0000.0001) %MON trcstat_ptracer02_mean       =   2.3641949085096E+00
(PID.TID 0000.0001) %MON trcstat_ptracer02_sd         =   4.9629939963249E-02
(PID.TID 0000.0001) %MON trcstat_ptracer02_del2       =   2.3379305187019E-05
(PID.TID 0000.0001) %MON trcstat_ptracer03_max        =   3.2964255186232E-03
(PID.TID 0000.0001) %MON trcstat_ptracer03_min        =   4.8658624281803E-05
(PID.TID 0000.0001) %MON trcstat_ptracer03_mean       =   2.1265727392527E-03
(PID.TID 0000.0001) %MON trcstat_ptracer03_sd         =   6.9838241730383E-04
(PID.TID 0000.0001) %MON trcstat_ptracer03_del2       =   2.2274947939377E-07
(PID.TID 0000.0001) %MON trcstat_ptracer04_max        =   3.0025784613792E-04
(PID.TID 0000.0001) %MON trcstat_ptracer04_min        =  -1.8979314175318E-07
(PID.TID 0000.0001) %MON trcstat_ptracer04_mean       =   5.9487263859773E-06
(PID.TID 0000.0001) %MON trcstat_ptracer04_sd         =   2.6309796413036E-05
(PID.TID 0000.0001) %MON trcstat_ptracer04_del2       =   3.2501777043133E-08
(PID.TID 0000.0001) %MON trcstat_ptracer05_max        =   3.8398851447728E-01
(PID.TID 0000.0001) %MON trcstat_ptracer05_min        =   3.9751618493893E-03
(PID.TID 0000.0001) %MON trcstat_ptracer05_mean       =   1.6196383847186E-01
(PID.TID 0000.0001) %MON trcstat_ptracer05_sd         =   7.3415466229823E-02
(PID.TID 0000.0001) %MON trcstat_ptracer05_del2       =   3.1009202842475E-05
(PID.TID 0000.0001) // =======================================================
(PID.TID 0000.0001) // End MONITOR ptracers field statistics
(PID.TID 0000.0001) // =======================================================
(PID.TID 0000.0001) EXF_SET_FLD: processing field "apco2",  file: apCO2_2000
(PID.TID 0000.0001) EXF_SET_FLD:   myIter, count0, count1:         2     12      1
(PID.TID 0000.0001) EXF_SET_FLD:   first, changed, fac:   F   F   0.499327957E+00
(PID.TID 0000.0001) EXF_SET_UV: processing fields "uwind" & "vwind"
(PID.TID 0000.0001) EXF_SET_UV:   files: EIG_u10m_2000 & EIG_v10m_2000
(PID.TID 0000.0001) EXF_SET_UV:   myIter, count0, count1:         2     12      1
(PID.TID 0000.0001) EXF_SET_UV:   first, changed, fac:   F   F   0.499327957E+00
(PID.TID 0000.0001) EXF_SET_FLD: processing field "atemp",  file: EIG_tmp2m_degC_plus_ECCO_v4r1_ctrl_2000
(PID.TID 0000.0001) EXF_SET_FLD:   myIter, count0, count1:         2     12      1
(PID.TID 0000.0001) EXF_SET_FLD:   first, changed, fac:   F   F   0.499327957E+00
(PID.TID 0000.0001) EXF_SET_FLD: processing field "aqh",  file: EIG_spfh2m_plus_ECCO_v4r1_ctrl_2000
(PID.TID 0000.0001) EXF_SET_FLD:   myIter, count0, count1:         2     12      1
(PID.TID 0000.0001) EXF_SET_FLD:   first, changed, fac:   F   F   0.499327957E+00
(PID.TID 0000.0001) EXF_SET_FLD: processing field "precip",  file: EIG_rain_plus_ECCO_v4r1_ctrl_2000
(PID.TID 0000.0001) EXF_SET_FLD:   myIter, count0, count1:         2     12      1
(PID.TID 0000.0001) EXF_SET_FLD:   first, changed, fac:   F   F   0.499327957E+00
(PID.TID 0000.0001) EXF_SET_FLD: processing field "swdown",  file: EIG_dsw_plus_ECCO_v4r1_ctrl_2000
(PID.TID 0000.0001) EXF_SET_FLD:   myIter, count0, count1:         2     12      1
(PID.TID 0000.0001) EXF_SET_FLD:   first, changed, fac:   F   F   0.499327957E+00
(PID.TID 0000.0001) EXF_SET_FLD: processing field "lwdown",  file: EIG_dlw_plus_ECCO_v4r1_ctrl_2000
(PID.TID 0000.0001) EXF_SET_FLD:   myIter, count0, count1:         2     12      1
(PID.TID 0000.0001) EXF_SET_FLD:   first, changed, fac:   F   F   0.499327957E+00
(PID.TID 0000.0001) EXF_SET_FLD: processing field "runoff",  file: runoff-2d-Fekete-1deg-mon-V4-SMOOTH.bin
(PID.TID 0000.0001) EXF_SET_FLD:   myIter, count0, count1:         2     12      1
(PID.TID 0000.0001) EXF_SET_FLD:   first, changed, fac:   F   F   0.499327957E+00
(PID.TID 0000.0001) // =======================================================
(PID.TID 0000.0001) // Begin MONITOR EXF statistics
(PID.TID 0000.0001) // =======================================================
(PID.TID 0000.0001) %MON exf_tsnumber                 =                     2
(PID.TID 0000.0001) %MON exf_time_sec                 =   1.8000000000000E+03
(PID.TID 0000.0001) %MON exf_ustress_max              =   1.3195158777932E-01
(PID.TID 0000.0001) %MON exf_ustress_min              =  -1.1243081359046E-01
(PID.TID 0000.0001) %MON exf_ustress_mean             =  -4.4186748568804E-03
(PID.TID 0000.0001) %MON exf_ustress_sd               =   4.0088147056976E-02
(PID.TID 0000.0001) %MON exf_ustress_del2             =   1.4490456003956E-04
(PID.TID 0000.0001) %MON exf_vstress_max              =   9.9479501670656E-02
(PID.TID 0000.0001) %MON exf_vstress_min              =  -1.0044246399996E-01
(PID.TID 0000.0001) %MON exf_vstress_mean             =  -3.5079054594309E-03
(PID.TID 0000.0001) %MON exf_vstress_sd               =   1.8014630255357E-02
(PID.TID 0000.0001) %MON exf_vstress_del2             =   9.7286025164143E-05
(PID.TID 0000.0001) %MON exf_hflux_max                =   4.1332201251267E+02
(PID.TID 0000.0001) %MON exf_hflux_min                =  -3.3217041563321E+02
(PID.TID 0000.0001) %MON exf_hflux_mean               =  -8.1852790282429E+01
(PID.TID 0000.0001) %MON exf_hflux_sd                 =   1.0068056256261E+02
(PID.TID 0000.0001) %MON exf_hflux_del2               =   7.3308194303044E-01
(PID.TID 0000.0001) %MON exf_sflux_max                =   8.5103697362802E-08
(PID.TID 0000.0001) %MON exf_sflux_min                =  -6.3521738092040E-07
(PID.TID 0000.0001) %MON exf_sflux_mean               =  -1.5665639133503E-08
(PID.TID 0000.0001) %MON exf_sflux_sd                 =   3.7495641826061E-08
(PID.TID 0000.0001) %MON exf_sflux_del2               =   3.5166153143290E-10
(PID.TID 0000.0001) %MON exf_uwind_max                =   9.5217983552367E+00
(PID.TID 0000.0001) %MON exf_uwind_min                =  -8.7609217157810E+00
(PID.TID 0000.0001) %MON exf_uwind_mean               =  -4.9436190538215E-01
(PID.TID 0000.0001) %MON exf_uwind_sd                 =   4.4177970205442E+00
(PID.TID 0000.0001) %MON exf_uwind_del2               =   1.2107698043108E-02
(PID.TID 0000.0001) %MON exf_vwind_max                =   8.7166206971894E+00
(PID.TID 0000.0001) %MON exf_vwind_min                =  -6.9957471996256E+00
(PID.TID 0000.0001) %MON exf_vwind_mean               =  -3.7884798413602E-01
(PID.TID 0000.0001) %MON exf_vwind_sd                 =   2.2078692772791E+00
(PID.TID 0000.0001) %MON exf_vwind_del2               =   9.5075368847140E-03
(PID.TID 0000.0001) %MON exf_wspeed_max               =   9.5374210959356E+00
(PID.TID 0000.0001) %MON exf_wspeed_min               =   4.8344673359828E-02
(PID.TID 0000.0001) %MON exf_wspeed_mean              =   4.4775885403594E+00
(PID.TID 0000.0001) %MON exf_wspeed_sd                =   2.1750258876853E+00
(PID.TID 0000.0001) %MON exf_wspeed_del2              =   2.6390375707111E-02
(PID.TID 0000.0001) %MON exf_atemp_max                =   3.0188423372215E+02
(PID.TID 0000.0001) %MON exf_atemp_min                =   2.4477123400921E+02
(PID.TID 0000.0001) %MON exf_atemp_mean               =   2.9041294042313E+02
(PID.TID 0000.0001) %MON exf_atemp_sd                 =   9.7907531540154E+00
(PID.TID 0000.0001) %MON exf_atemp_del2               =   9.0505796794436E-02
(PID.TID 0000.0001) %MON exf_aqh_max                  =   1.9838150947169E-02
(PID.TID 0000.0001) %MON exf_aqh_min                  =   3.5624166970998E-04
(PID.TID 0000.0001) %MON exf_aqh_mean                 =   1.1235079527214E-02
(PID.TID 0000.0001) %MON exf_aqh_sd                   =   5.1803124252670E-03
(PID.TID 0000.0001) %MON exf_aqh_del2                 =   5.8601523345740E-05
(PID.TID 0000.0001) %MON exf_lwflux_max               =   1.5497149990758E+02
(PID.TID 0000.0001) %MON exf_lwflux_min               =   4.3040506015932E+00
(PID.TID 0000.0001) %MON exf_lwflux_mean              =   4.1310729217700E+01
(PID.TID 0000.0001) %MON exf_lwflux_sd                =   1.3587912705464E+01
(PID.TID 0000.0001) %MON exf_lwflux_del2              =   1.9930875660578E-01
(PID.TID 0000.0001) %MON exf_evap_max                 =   8.5136969643802E-08
(PID.TID 0000.0001) %MON exf_evap_min                 =  -1.2833285385689E-08
(PID.TID 0000.0001) %MON exf_evap_mean                =   2.6032576892353E-08
(PID.TID 0000.0001) %MON exf_evap_sd                  =   1.7974272638335E-08
(PID.TID 0000.0001) %MON exf_evap_del2                =   1.6638281520553E-10
(PID.TID 0000.0001) %MON exf_precip_max               =   1.4862568013505E-07
(PID.TID 0000.0001) %MON exf_precip_min               =  -8.5442623182415E-09
(PID.TID 0000.0001) %MON exf_precip_mean              =   3.9996862864727E-08
(PID.TID 0000.0001) %MON exf_precip_sd                =   2.9093097890072E-08
(PID.TID 0000.0001) %MON exf_precip_del2              =   3.1033893693993E-10
(PID.TID 0000.0001) %MON exf_swflux_max               =   3.3126192252638E+01
(PID.TID 0000.0001) %MON exf_swflux_min               =  -3.5303553752756E+02
(PID.TID 0000.0001) %MON exf_swflux_mean              =  -1.9692502333234E+02
(PID.TID 0000.0001) %MON exf_swflux_sd                =   7.3605025601258E+01
(PID.TID 0000.0001) %MON exf_swflux_del2              =   9.3067905127989E-01
(PID.TID 0000.0001) %MON exf_swdown_max               =   3.8080807561471E+02
(PID.TID 0000.0001) %MON exf_swdown_min               =  -4.7323131789483E+01
(PID.TID 0000.0001) %MON exf_swdown_mean              =   2.1343025912713E+02
(PID.TID 0000.0001) %MON exf_swdown_sd                =   7.8892848920726E+01
(PID.TID 0000.0001) %MON exf_swdown_del2              =   1.0071696375360E+00
(PID.TID 0000.0001) %MON exf_lwdown_max               =   4.4360509241338E+02
(PID.TID 0000.0001) %MON exf_lwdown_min               =   1.5697716463672E+02
(PID.TID 0000.0001) %MON exf_lwdown_mean              =   3.6918899487219E+02
(PID.TID 0000.0001) %MON exf_lwdown_sd                =   5.1749886667177E+01
(PID.TID 0000.0001) %MON exf_lwdown_del2              =   1.5869221320150E+00
(PID.TID 0000.0001) %MON exf_runoff_max               =   5.5102330949516E-07
(PID.TID 0000.0001) %MON exf_runoff_min               =   0.0000000000000E+00
(PID.TID 0000.0001) %MON exf_runoff_mean              =   1.7013531611290E-09
(PID.TID 0000.0001) %MON exf_runoff_sd                =   1.1342510174431E-08
(PID.TID 0000.0001) %MON exf_runoff_del2              =   1.2652298414614E-10
(PID.TID 0000.0001) %MON exf_apco2_max                =   3.7074056104214E-04
(PID.TID 0000.0001) %MON exf_apco2_min                =   3.6819558761914E-04
(PID.TID 0000.0001) %MON exf_apco2_mean               =   3.6882190311646E-04
(PID.TID 0000.0001) %MON exf_apco2_sd                 =   5.2279178732477E-07
(PID.TID 0000.0001) %MON exf_apco2_del2               =   1.5223095071855E-06
(PID.TID 0000.0001) // =======================================================
(PID.TID 0000.0001) // End MONITOR EXF statistics
(PID.TID 0000.0001) // =======================================================
 EXTERNAL_FIELDS_LOAD,         2 : iP,iLd,i0,i1=   12    1   12    1 ; Wght=  0.4993055556  0.5006944444
 EXTERNAL_FIELDS_LOAD: (fu0,1),fu,fv=  0.0000E+00  0.0000E+00 -8.5251E-04  2.4533E-02
 EXTERNAL_FIELDS_LOAD: SST,SSS,Q,E-P=  0.0000E+00  0.0000E+00 -1.4152E+02 -4.1149E-05
 DIC_FIELDS_LOAD,         2 : iP,iLd,i0,i1=   12    1   12    1 ; Wght=  0.4993055556  0.5006944444
DEBUG_STATS_RL:          Uvel (THERMODYNAMICS)  min= -2.36553166108774E-01
DEBUG_STATS_RL:          Uvel (THERMODYNAMICS)  max=  1.90345751409772E-01
DEBUG_STATS_RL:          Uvel (THERMODYNAMICS) mean=  4.31285872432797E-03
DEBUG_STATS_RL:          Uvel (THERMODYNAMICS) S.D.=  2.22421182195457E-02
DEBUG_STATS_RL:          Vvel (THERMODYNAMICS)  min= -2.16392260767266E-01
DEBUG_STATS_RL:          Vvel (THERMODYNAMICS)  max=  1.44792001995686E-01
DEBUG_STATS_RL:          Vvel (THERMODYNAMICS) mean= -7.12183802623490E-04
DEBUG_STATS_RL:          Vvel (THERMODYNAMICS) S.D.=  1.31728482049378E-02
DEBUG_STATS_RL:          Wvel (THERMODYNAMICS)  min= -9.14480781854128E-05
DEBUG_STATS_RL:          Wvel (THERMODYNAMICS)  max=  7.13101665474821E-05
DEBUG_STATS_RL:          Wvel (THERMODYNAMICS) mean=  1.98484006264833E-07
DEBUG_STATS_RL:          Wvel (THERMODYNAMICS) S.D.=  6.53452633483086E-06
DEBUG_STATS_RL:         Theta (THERMODYNAMICS)  min= -3.46746471139250E+00
DEBUG_STATS_RL:         Theta (THERMODYNAMICS)  max=  3.02457013796577E+01
DEBUG_STATS_RL:         Theta (THERMODYNAMICS) mean=  6.18032041597769E+00
DEBUG_STATS_RL:         Theta (THERMODYNAMICS) S.D.=  6.76152656656041E+00
DEBUG_STATS_RL:          Salt (THERMODYNAMICS)  min=  3.14845910482269E+01
DEBUG_STATS_RL:          Salt (THERMODYNAMICS)  max=  3.75568017079784E+01
DEBUG_STATS_RL:          Salt (THERMODYNAMICS) mean=  3.46619911936054E+01
DEBUG_STATS_RL:          Salt (THERMODYNAMICS) S.D.=  4.90701429674948E-01
DEBUG_STATS_RL:                   PTRACER.0001  min=  1.64116718738343E+00
DEBUG_STATS_RL:                   PTRACER.0001  max=  2.44295095324666E+00
DEBUG_STATS_RL:                   PTRACER.0001 mean=  2.19530533844729E+00
DEBUG_STATS_RL:                   PTRACER.0001 S.D.=  1.33210965532715E-01
DEBUG_STATS_RL:                   GNm1TRC.0001  min=  0.00000000000000E+00
DEBUG_STATS_RL:                   GNm1TRC.0001  max=  0.00000000000000E+00
DEBUG_STATS_RL:                   GNm1TRC.0001 mean=  0.00000000000000E+00
DEBUG_STATS_RL:                   GNm1TRC.0001 S.D.=  0.00000000000000E+00
DEBUG_STATS_RL:                   PTRACER.0002  min=  1.95002607174282E+00
DEBUG_STATS_RL:                   PTRACER.0002  max=  2.56177938976419E+00
DEBUG_STATS_RL:                   PTRACER.0002 mean=  2.33903776091378E+00
DEBUG_STATS_RL:                   PTRACER.0002 S.D.=  6.29568804519008E-02
DEBUG_STATS_RL:                   GNm1TRC.0002  min=  0.00000000000000E+00
DEBUG_STATS_RL:                   GNm1TRC.0002  max=  0.00000000000000E+00
DEBUG_STATS_RL:                   GNm1TRC.0002 mean=  0.00000000000000E+00
DEBUG_STATS_RL:                   GNm1TRC.0002 S.D.=  0.00000000000000E+00
DEBUG_STATS_RL:                   PTRACER.0003  min=  4.86606158557010E-05
DEBUG_STATS_RL:                   PTRACER.0003  max=  3.29642519408763E-03
DEBUG_STATS_RL:                   PTRACER.0003 mean=  1.74938532290500E-03
DEBUG_STATS_RL:                   PTRACER.0003 S.D.=  8.38789198242197E-04
DEBUG_STATS_RL:                   GNm1TRC.0003  min=  0.00000000000000E+00
DEBUG_STATS_RL:                   GNm1TRC.0003  max=  0.00000000000000E+00
DEBUG_STATS_RL:                   GNm1TRC.0003 mean=  0.00000000000000E+00
DEBUG_STATS_RL:                   GNm1TRC.0003 S.D.=  0.00000000000000E+00
DEBUG_STATS_RL:                   PTRACER.0004  min= -1.89774832499694E-07
DEBUG_STATS_RL:                   PTRACER.0004  max=  3.00251298555929E-04
DEBUG_STATS_RL:                   PTRACER.0004 mean=  2.59069863719253E-05
DEBUG_STATS_RL:                   PTRACER.0004 S.D.=  5.37038878394145E-05
DEBUG_STATS_RL:                   GNm1TRC.0004  min=  0.00000000000000E+00
DEBUG_STATS_RL:                   GNm1TRC.0004  max=  0.00000000000000E+00
DEBUG_STATS_RL:                   GNm1TRC.0004 mean=  0.00000000000000E+00
DEBUG_STATS_RL:                   GNm1TRC.0004 S.D.=  0.00000000000000E+00
DEBUG_STATS_RL:                   PTRACER.0005  min=  3.97532834811717E-03
DEBUG_STATS_RL:                   PTRACER.0005  max=  3.83981458785918E-01
DEBUG_STATS_RL:                   PTRACER.0005 mean=  1.88096696629871E-01
DEBUG_STATS_RL:                   PTRACER.0005 S.D.=  7.98034631882652E-02
DEBUG_STATS_RL:                   GNm1TRC.0005  min=  0.00000000000000E+00
DEBUG_STATS_RL:                   GNm1TRC.0005  max=  0.00000000000000E+00
DEBUG_STATS_RL:                   GNm1TRC.0005 mean=  0.00000000000000E+00
DEBUG_STATS_RL:                   GNm1TRC.0005 S.D.=  0.00000000000000E+00
DEBUG_STATS_RL:                EtaN (DYNAMICS)  min= -1.44613305009662E+00
DEBUG_STATS_RL:                EtaN (DYNAMICS)  max=  9.47169454189577E-01
DEBUG_STATS_RL:                EtaN (DYNAMICS) mean= -1.58157457713318E-01
DEBUG_STATS_RL:                EtaN (DYNAMICS) S.D.=  6.35696126786711E-01
DEBUG_STATS_RL:                Uvel (DYNAMICS)  min= -2.36553166108774E-01
DEBUG_STATS_RL:                Uvel (DYNAMICS)  max=  1.90345751409772E-01
DEBUG_STATS_RL:                Uvel (DYNAMICS) mean=  4.31285872432797E-03
DEBUG_STATS_RL:                Uvel (DYNAMICS) S.D.=  2.22421182195457E-02
DEBUG_STATS_RL:                Vvel (DYNAMICS)  min= -2.16392260767266E-01
DEBUG_STATS_RL:                Vvel (DYNAMICS)  max=  1.44792001995686E-01
DEBUG_STATS_RL:                Vvel (DYNAMICS) mean= -7.12183802623490E-04
DEBUG_STATS_RL:                Vvel (DYNAMICS) S.D.=  1.31728482049378E-02
DEBUG_STATS_RL:                Wvel (DYNAMICS)  min= -9.14480781854128E-05
DEBUG_STATS_RL:                Wvel (DYNAMICS)  max=  7.13101665474821E-05
DEBUG_STATS_RL:                Wvel (DYNAMICS) mean=  1.98484006264833E-07
DEBUG_STATS_RL:                Wvel (DYNAMICS) S.D.=  6.53452633483086E-06
DEBUG_STATS_RL:               Theta (DYNAMICS)  min= -3.46746471139250E+00
DEBUG_STATS_RL:               Theta (DYNAMICS)  max=  3.02457013796577E+01
DEBUG_STATS_RL:               Theta (DYNAMICS) mean=  6.18032041597769E+00
DEBUG_STATS_RL:               Theta (DYNAMICS) S.D.=  6.76152656656041E+00
DEBUG_STATS_RL:                Salt (DYNAMICS)  min=  3.14845910482269E+01
DEBUG_STATS_RL:                Salt (DYNAMICS)  max=  3.75568017079784E+01
DEBUG_STATS_RL:                Salt (DYNAMICS) mean=  3.46619911936054E+01
DEBUG_STATS_RL:                Salt (DYNAMICS) S.D.=  4.90701429674948E-01
DEBUG_STATS_RL:                  Gu (DYNAMICS)  min= -2.36079794482199E-01
DEBUG_STATS_RL:                  Gu (DYNAMICS)  max=  1.90559060530488E-01
DEBUG_STATS_RL:                  Gu (DYNAMICS) mean=  4.27416076012852E-03
DEBUG_STATS_RL:                  Gu (DYNAMICS) S.D.=  2.23279488567677E-02
DEBUG_STATS_RL:                  Gv (DYNAMICS)  min= -2.16317340609970E-01
DEBUG_STATS_RL:                  Gv (DYNAMICS)  max=  1.42304006838196E-01
DEBUG_STATS_RL:                  Gv (DYNAMICS) mean= -1.37715571189914E-04
DEBUG_STATS_RL:                  Gv (DYNAMICS) S.D.=  1.30905471942551E-02
DEBUG_STATS_RL:    cg2d_b (SOLVE_FOR_PRESSURE)  min= -1.14206876937394E+05
DEBUG_STATS_RL:    cg2d_b (SOLVE_FOR_PRESSURE)  max=  9.28392670649785E+04
DEBUG_STATS_RL:    cg2d_b (SOLVE_FOR_PRESSURE) mean= -7.56229260362130E-06
DEBUG_STATS_RL:    cg2d_b (SOLVE_FOR_PRESSURE) S.D.=  4.79292447626748E+04
 cg2d: Sum(rhs),rhsMax =  -2.94462576988508E-07  8.03705305292051E+00
(PID.TID 0000.0001)  cg2d: iter=     1 ; resid.=  1.21249833671790E-01
(PID.TID 0000.0001)  cg2d: iter=     2 ; resid.=  3.36675546519622E-02
(PID.TID 0000.0001)  cg2d: iter=     3 ; resid.=  1.01148725232745E-02
(PID.TID 0000.0001)  cg2d: iter=     4 ; resid.=  3.09180965774963E-03
(PID.TID 0000.0001)  cg2d: iter=     5 ; resid.=  1.00053101654165E-03
(PID.TID 0000.0001)  cg2d: iter=     6 ; resid.=  3.17327524260083E-04
(PID.TID 0000.0001)  cg2d: iter=     7 ; resid.=  1.02667489943792E-04
(PID.TID 0000.0001)  cg2d: iter=     8 ; resid.=  4.08313317296939E-05
(PID.TID 0000.0001)  cg2d: iter=     9 ; resid.=  1.44944253637932E-05
(PID.TID 0000.0001)  cg2d: iter=    10 ; resid.=  4.75157697996286E-06
(PID.TID 0000.0001)  cg2d: iter=    11 ; resid.=  1.66924738575657E-06
(PID.TID 0000.0001)  cg2d: iter=    12 ; resid.=  5.22933016168009E-07
(PID.TID 0000.0001)  cg2d: iter=    13 ; resid.=  1.59278357310709E-07
(PID.TID 0000.0001)  cg2d: iter=    14 ; resid.=  4.73718293868950E-08
(PID.TID 0000.0001)  cg2d: iter=    15 ; resid.=  1.33125959378161E-08
(PID.TID 0000.0001)  cg2d: iter=    16 ; resid.=  3.72927121668511E-09
(PID.TID 0000.0001)  cg2d: iter=    17 ; resid.=  1.10233656191768E-09
(PID.TID 0000.0001)  cg2d: iter=    18 ; resid.=  3.40505140173308E-10
(PID.TID 0000.0001)  cg2d: iter=    19 ; resid.=  1.07557531312988E-10
(PID.TID 0000.0001)  cg2d: iter=    20 ; resid.=  4.10597073600801E-11
(PID.TID 0000.0001)  cg2d: iter=    21 ; resid.=  1.55760185990735E-11
(PID.TID 0000.0001)  cg2d: iter=    22 ; resid.=  4.73602854936434E-12
(PID.TID 0000.0001)  cg2d: iter=    23 ; resid.=  1.47358390657095E-12
(PID.TID 0000.0001)  cg2d: iter=    24 ; resid.=  5.02966674350372E-13
(PID.TID 0000.0001)  cg2d: iter=    25 ; resid.=  1.60717282371230E-13
(PID.TID 0000.0001)  cg2d: iter=    26 ; resid.=  5.26981615462454E-14
DEBUG_STATS_RL:    cg2d_x (SOLVE_FOR_PRESSURE)  min= -1.41557049257281E+01
DEBUG_STATS_RL:    cg2d_x (SOLVE_FOR_PRESSURE)  max=  9.15987815093016E+00
DEBUG_STATS_RL:    cg2d_x (SOLVE_FOR_PRESSURE) mean= -1.54632083526304E+00
DEBUG_STATS_RL:    cg2d_x (SOLVE_FOR_PRESSURE) S.D.=  6.20146494746686E+00
(PID.TID 0000.0001)      cg2d_init_res =   4.87539200746896E-01
(PID.TID 0000.0001)      cg2d_iters(min,last) =      -1      26
(PID.TID 0000.0001)      cg2d_last_res =   5.26981615462454E-14
(PID.TID 0000.0001) // =======================================================
(PID.TID 0000.0001) // Begin MONITOR dynamic field statistics
(PID.TID 0000.0001) // =======================================================
(PID.TID 0000.0001) %MON time_tsnumber                =                     3
(PID.TID 0000.0001) %MON time_secondsf                =   2.7000000000000E+03
(PID.TID 0000.0001) %MON dynstat_eta_max              =   9.3372865962591E-01
(PID.TID 0000.0001) %MON dynstat_eta_min              =  -1.4429872503291E+00
(PID.TID 0000.0001) %MON dynstat_eta_mean             =   8.2462491646489E-11
(PID.TID 0000.0001) %MON dynstat_eta_sd               =   5.5833306352467E-01
(PID.TID 0000.0001) %MON dynstat_eta_del2             =   9.1165356011629E-04
(PID.TID 0000.0001) %MON dynstat_uvel_max             =   1.9052806000339E-01
(PID.TID 0000.0001) %MON dynstat_uvel_min             =  -2.3599688571531E-01
(PID.TID 0000.0001) %MON dynstat_uvel_mean            =   1.8427326218403E-03
(PID.TID 0000.0001) %MON dynstat_uvel_sd              =   1.3021288006575E-02
(PID.TID 0000.0001) %MON dynstat_uvel_del2            =   4.9641238563423E-05
(PID.TID 0000.0001) %MON dynstat_vvel_max             =   1.4202266761863E-01
(PID.TID 0000.0001) %MON dynstat_vvel_min             =  -2.1583910971896E-01
(PID.TID 0000.0001) %MON dynstat_vvel_mean            =  -7.7348001889802E-04
(PID.TID 0000.0001) %MON dynstat_vvel_sd              =   7.9157395094487E-03
(PID.TID 0000.0001) %MON dynstat_vvel_del2            =   4.0439082222500E-05
(PID.TID 0000.0001) %MON dynstat_wvel_max             =   1.3257028809156E-04
(PID.TID 0000.0001) %MON dynstat_wvel_min             =  -9.4358570756708E-05
(PID.TID 0000.0001) %MON dynstat_wvel_mean            =  -2.9169766051606E-17
(PID.TID 0000.0001) %MON dynstat_wvel_sd              =   5.9574006324786E-06
(PID.TID 0000.0001) %MON dynstat_wvel_del2            =   5.5433708286255E-08
(PID.TID 0000.0001) %MON dynstat_theta_max            =   3.0245701379658E+01
(PID.TID 0000.0001) %MON dynstat_theta_min            =  -3.4674647113925E+00
(PID.TID 0000.0001) %MON dynstat_theta_mean           =   3.8021342265591E+00
(PID.TID 0000.0001) %MON dynstat_theta_sd             =   4.5122997062932E+00
(PID.TID 0000.0001) %MON dynstat_theta_del2           =   2.5987775274666E-03
(PID.TID 0000.0001) %MON dynstat_salt_max             =   3.7556801707978E+01
(PID.TID 0000.0001) %MON dynstat_salt_min             =   3.1484591048227E+01
(PID.TID 0000.0001) %MON dynstat_salt_mean            =   3.4614647874002E+01
(PID.TID 0000.0001) %MON dynstat_salt_sd              =   3.1408561977647E-01
(PID.TID 0000.0001) %MON dynstat_salt_del2            =   4.0542243558740E-04
(PID.TID 0000.0001) %MON forcing_qnet_max             =   3.5044377352319E+02
(PID.TID 0000.0001) %MON forcing_qnet_min             =  -3.3217041563321E+02
(PID.TID 0000.0001) %MON forcing_qnet_mean            =  -8.2630919292943E+01
(PID.TID 0000.0001) %MON forcing_qnet_sd              =   9.8285680487415E+01
(PID.TID 0000.0001) %MON forcing_qnet_del2            =   5.8990170176946E-01
(PID.TID 0000.0001) %MON forcing_qsw_max              =   3.3126192252638E+01
(PID.TID 0000.0001) %MON forcing_qsw_min              =  -3.5303553752756E+02
(PID.TID 0000.0001) %MON forcing_qsw_mean             =  -1.9660943182568E+02
(PID.TID 0000.0001) %MON forcing_qsw_sd               =   7.3857883243519E+01
(PID.TID 0000.0001) %MON forcing_qsw_del2             =   3.3346738645091E-01
(PID.TID 0000.0001) %MON forcing_empmr_max            =   8.2889848877800E-04
(PID.TID 0000.0001) %MON forcing_empmr_min            =  -6.3521738092040E-04
(PID.TID 0000.0001) %MON forcing_empmr_mean           =  -1.4927360970614E-05
(PID.TID 0000.0001) %MON forcing_empmr_sd             =   4.3487572565834E-05
(PID.TID 0000.0001) %MON forcing_empmr_del2           =   8.1174238397205E-07
(PID.TID 0000.0001) %MON forcing_fu_max               =   1.3087541998464E-01
(PID.TID 0000.0001) %MON forcing_fu_min               =  -1.1232948535022E-01
(PID.TID 0000.0001) %MON forcing_fu_mean              =  -4.3562990940895E-03
(PID.TID 0000.0001) %MON forcing_fu_sd                =   4.0501881861280E-02
(PID.TID 0000.0001) %MON forcing_fu_del2              =   1.3883872037960E-04
(PID.TID 0000.0001) %MON forcing_fv_max               =   9.4388588183075E-02
(PID.TID 0000.0001) %MON forcing_fv_min               =  -9.3617723646580E-02
(PID.TID 0000.0001) %MON forcing_fv_mean              =  -3.4025723737638E-03
(PID.TID 0000.0001) %MON forcing_fv_sd                =   1.7657572148988E-02
(PID.TID 0000.0001) %MON forcing_fv_del2              =   8.3016131251711E-05
(PID.TID 0000.0001) %MON trAdv_CFL_u_max              =   7.1156526802777E-04
(PID.TID 0000.0001) %MON trAdv_CFL_v_max              =   6.2233737716033E-04
(PID.TID 0000.0001) %MON trAdv_CFL_w_max              =   1.4679173824467E-03
(PID.TID 0000.0001) %MON advcfl_uvel_max              =   7.2404055816602E-04
(PID.TID 0000.0001) %MON advcfl_vvel_max              =   6.2124559074449E-04
(PID.TID 0000.0001) %MON advcfl_wvel_max              =   3.1938212879582E-03
(PID.TID 0000.0001) %MON advcfl_W_hf_max              =   1.3777555609873E-03
(PID.TID 0000.0001) %MON pe_b_mean                    =   4.0178191001824E-04
(PID.TID 0000.0001) %MON ke_max                       =   3.1054601740830E-02
(PID.TID 0000.0001) %MON ke_mean                      =   1.0932758034905E-04
(PID.TID 0000.0001) %MON ke_vol                       =   1.2571476858570E+18
(PID.TID 0000.0001) %MON vort_r_min                   =  -8.9503245445237E-07
(PID.TID 0000.0001) %MON vort_r_max                   =   9.9650931293329E-07
(PID.TID 0000.0001) %MON vort_a_mean                  =  -2.4002453570025E-05
(PID.TID 0000.0001) %MON vort_a_sd                    =   7.3138174877351E-05
(PID.TID 0000.0001) %MON vort_p_mean                  =  -2.8585773838203E-05
(PID.TID 0000.0001) %MON vort_p_sd                    =   1.1453385175375E-04
(PID.TID 0000.0001) %MON surfExpan_theta_mean         =  -1.7542248721604E-05
(PID.TID 0000.0001) %MON surfExpan_salt_mean          =  -1.5211617130066E-06
(PID.TID 0000.0001) // =======================================================
(PID.TID 0000.0001) // End MONITOR dynamic field statistics
(PID.TID 0000.0001) // =======================================================
(PID.TID 0000.0001) // =======================================================
(PID.TID 0000.0001) // Begin MONITOR SEAICE statistics
(PID.TID 0000.0001) // =======================================================
(PID.TID 0000.0001) %MON seaice_tsnumber              =                     3
(PID.TID 0000.0001) %MON seaice_time_sec              =   2.7000000000000E+03
(PID.TID 0000.0001) %MON seaice_uice_max              =   4.0000000000000E-01
(PID.TID 0000.0001) %MON seaice_uice_min              =  -4.0000000000000E-01
(PID.TID 0000.0001) %MON seaice_uice_mean             =  -2.1026032823743E-02
(PID.TID 0000.0001) %MON seaice_uice_sd               =   2.1529662277719E-01
(PID.TID 0000.0001) %MON seaice_uice_del2             =   7.3014042090768E-04
(PID.TID 0000.0001) %MON seaice_vice_max              =   3.9833858028488E-01
(PID.TID 0000.0001) %MON seaice_vice_min              =  -3.2496199122950E-01
(PID.TID 0000.0001) %MON seaice_vice_mean             =  -1.3611471039527E-02
(PID.TID 0000.0001) %MON seaice_vice_sd               =   8.1404421623608E-02
(PID.TID 0000.0001) %MON seaice_vice_del2             =   4.3435929072362E-04
(PID.TID 0000.0001) %MON seaice_area_max              =   9.5000000000000E-01
(PID.TID 0000.0001) %MON seaice_area_min              =   0.0000000000000E+00
(PID.TID 0000.0001) %MON seaice_area_mean             =   4.7096011862411E-03
(PID.TID 0000.0001) %MON seaice_area_sd               =   6.6645316432327E-02
(PID.TID 0000.0001) %MON seaice_area_del2             =   1.9414648763232E-03
(PID.TID 0000.0001) %MON seaice_heff_max              =   1.0006566350799E+00
(PID.TID 0000.0001) %MON seaice_heff_min              =   0.0000000000000E+00
(PID.TID 0000.0001) %MON seaice_heff_mean             =   4.9501678838992E-03
(PID.TID 0000.0001) %MON seaice_heff_sd               =   7.0148819843935E-02
(PID.TID 0000.0001) %MON seaice_heff_del2             =   2.0464837333996E-03
(PID.TID 0000.0001) %MON seaice_hsnow_max             =   2.0026907381487E-01
(PID.TID 0000.0001) %MON seaice_hsnow_min             =   0.0000000000000E+00
(PID.TID 0000.0001) %MON seaice_hsnow_mean            =   9.9005410620085E-04
(PID.TID 0000.0001) %MON seaice_hsnow_sd              =   1.4037244161825E-02
(PID.TID 0000.0001) %MON seaice_hsnow_del2            =   4.0972623166046E-04
(PID.TID 0000.0001) // =======================================================
(PID.TID 0000.0001) // End MONITOR SEAICE statistics
(PID.TID 0000.0001) // =======================================================
(PID.TID 0000.0001) // =======================================================
(PID.TID 0000.0001) // Begin MONITOR ptracer field statistics
(PID.TID 0000.0001) // =======================================================
(PID.TID 0000.0001) %MON trcstat_ptracer01_max        =   2.4429509618151E+00
(PID.TID 0000.0001) %MON trcstat_ptracer01_min        =   1.6411668914925E+00
(PID.TID 0000.0001) %MON trcstat_ptracer01_mean       =   2.2619455540217E+00
(PID.TID 0000.0001) %MON trcstat_ptracer01_sd         =   1.0331304388031E-01
(PID.TID 0000.0001) %MON trcstat_ptracer01_del2       =   3.5366874550818E-05
(PID.TID 0000.0001) %MON trcstat_ptracer02_max        =   2.5617793739345E+00
(PID.TID 0000.0001) %MON trcstat_ptracer02_min        =   1.9500260768004E+00
(PID.TID 0000.0001) %MON trcstat_ptracer02_mean       =   2.3641948997182E+00
(PID.TID 0000.0001) %MON trcstat_ptracer02_sd         =   4.9629949405731E-02
(PID.TID 0000.0001) %MON trcstat_ptracer02_del2       =   2.3379097181743E-05
(PID.TID 0000.0001) %MON trcstat_ptracer03_max        =   3.2964254919321E-03
(PID.TID 0000.0001) %MON trcstat_ptracer03_min        =   4.8658825686804E-05
(PID.TID 0000.0001) %MON trcstat_ptracer03_mean       =   2.1265724128663E-03
(PID.TID 0000.0001) %MON trcstat_ptracer03_sd         =   6.9838294588195E-04
(PID.TID 0000.0001) %MON trcstat_ptracer03_del2       =   2.2274922218773E-07
(PID.TID 0000.0001) %MON trcstat_ptracer04_max        =   3.0025252248759E-04
(PID.TID 0000.0001) %MON trcstat_ptracer04_min        =  -1.8976385015985E-07
(PID.TID 0000.0001) %MON trcstat_ptracer04_mean       =   5.9487474788809E-06
(PID.TID 0000.0001) %MON trcstat_ptracer04_sd         =   2.6309748245846E-05
(PID.TID 0000.0001) %MON trcstat_ptracer04_del2       =   3.2498486241041E-08
(PID.TID 0000.0001) %MON trcstat_ptracer05_max        =   3.8398105737579E-01
(PID.TID 0000.0001) %MON trcstat_ptracer05_min        =   3.9753283481172E-03
(PID.TID 0000.0001) %MON trcstat_ptracer05_mean       =   1.6196381094091E-01
(PID.TID 0000.0001) %MON trcstat_ptracer05_sd         =   7.3415409917723E-02
(PID.TID 0000.0001) %MON trcstat_ptracer05_del2       =   3.1008402322881E-05
(PID.TID 0000.0001) // =======================================================
(PID.TID 0000.0001) // End MONITOR ptracers field statistics
(PID.TID 0000.0001) // =======================================================
(PID.TID 0000.0001) EXF_SET_FLD: processing field "apco2",  file: apCO2_2000
(PID.TID 0000.0001) EXF_SET_FLD:   myIter, count0, count1:         3     12      1
(PID.TID 0000.0001) EXF_SET_FLD:   first, changed, fac:   F   F   0.498991935E+00
(PID.TID 0000.0001) EXF_SET_UV: processing fields "uwind" & "vwind"
(PID.TID 0000.0001) EXF_SET_UV:   files: EIG_u10m_2000 & EIG_v10m_2000
(PID.TID 0000.0001) EXF_SET_UV:   myIter, count0, count1:         3     12      1
(PID.TID 0000.0001) EXF_SET_UV:   first, changed, fac:   F   F   0.498991935E+00
(PID.TID 0000.0001) EXF_SET_FLD: processing field "atemp",  file: EIG_tmp2m_degC_plus_ECCO_v4r1_ctrl_2000
(PID.TID 0000.0001) EXF_SET_FLD:   myIter, count0, count1:         3     12      1
(PID.TID 0000.0001) EXF_SET_FLD:   first, changed, fac:   F   F   0.498991935E+00
(PID.TID 0000.0001) EXF_SET_FLD: processing field "aqh",  file: EIG_spfh2m_plus_ECCO_v4r1_ctrl_2000
(PID.TID 0000.0001) EXF_SET_FLD:   myIter, count0, count1:         3     12      1
(PID.TID 0000.0001) EXF_SET_FLD:   first, changed, fac:   F   F   0.498991935E+00
(PID.TID 0000.0001) EXF_SET_FLD: processing field "precip",  file: EIG_rain_plus_ECCO_v4r1_ctrl_2000
(PID.TID 0000.0001) EXF_SET_FLD:   myIter, count0, count1:         3     12      1
(PID.TID 0000.0001) EXF_SET_FLD:   first, changed, fac:   F   F   0.498991935E+00
(PID.TID 0000.0001) EXF_SET_FLD: processing field "swdown",  file: EIG_dsw_plus_ECCO_v4r1_ctrl_2000
(PID.TID 0000.0001) EXF_SET_FLD:   myIter, count0, count1:         3     12      1
(PID.TID 0000.0001) EXF_SET_FLD:   first, changed, fac:   F   F   0.498991935E+00
(PID.TID 0000.0001) EXF_SET_FLD: processing field "lwdown",  file: EIG_dlw_plus_ECCO_v4r1_ctrl_2000
(PID.TID 0000.0001) EXF_SET_FLD:   myIter, count0, count1:         3     12      1
(PID.TID 0000.0001) EXF_SET_FLD:   first, changed, fac:   F   F   0.498991935E+00
(PID.TID 0000.0001) EXF_SET_FLD: processing field "runoff",  file: runoff-2d-Fekete-1deg-mon-V4-SMOOTH.bin
(PID.TID 0000.0001) EXF_SET_FLD:   myIter, count0, count1:         3     12      1
(PID.TID 0000.0001) EXF_SET_FLD:   first, changed, fac:   F   F   0.498991935E+00
(PID.TID 0000.0001) // =======================================================
(PID.TID 0000.0001) // Begin MONITOR EXF statistics
(PID.TID 0000.0001) // =======================================================
(PID.TID 0000.0001) %MON exf_tsnumber                 =                     3
(PID.TID 0000.0001) %MON exf_time_sec                 =   2.7000000000000E+03
(PID.TID 0000.0001) %MON exf_ustress_max              =   1.3194205172167E-01
(PID.TID 0000.0001) %MON exf_ustress_min              =  -1.1243625465852E-01
(PID.TID 0000.0001) %MON exf_ustress_mean             =  -4.4186218839813E-03
(PID.TID 0000.0001) %MON exf_ustress_sd               =   4.0087520812461E-02
(PID.TID 0000.0001) %MON exf_ustress_del2             =   1.4489068876866E-04
(PID.TID 0000.0001) %MON exf_vstress_max              =   9.9481781824394E-02
(PID.TID 0000.0001) %MON exf_vstress_min              =  -1.0040498375255E-01
(PID.TID 0000.0001) %MON exf_vstress_mean             =  -3.5086279624663E-03
(PID.TID 0000.0001) %MON exf_vstress_sd               =   1.8013674018748E-02
(PID.TID 0000.0001) %MON exf_vstress_del2             =   9.7280127839227E-05
(PID.TID 0000.0001) %MON exf_hflux_max                =   4.1332276066845E+02
(PID.TID 0000.0001) %MON exf_hflux_min                =  -3.3216804464290E+02
(PID.TID 0000.0001) %MON exf_hflux_mean               =  -8.1848888354759E+01
(PID.TID 0000.0001) %MON exf_hflux_sd                 =   1.0067696085647E+02
(PID.TID 0000.0001) %MON exf_hflux_del2               =   7.3302356017365E-01
(PID.TID 0000.0001) %MON exf_sflux_max                =   8.5103219812036E-08
(PID.TID 0000.0001) %MON exf_sflux_min                =  -6.3532691844657E-07
(PID.TID 0000.0001) %MON exf_sflux_mean               =  -1.5665046732896E-08
(PID.TID 0000.0001) %MON exf_sflux_sd                 =   3.7495661803571E-08
(PID.TID 0000.0001) %MON exf_sflux_del2               =   3.5167217641951E-10
(PID.TID 0000.0001) %MON exf_uwind_max                =   9.5214546725408E+00
(PID.TID 0000.0001) %MON exf_uwind_min                =  -8.7608171889325E+00
(PID.TID 0000.0001) %MON exf_uwind_mean               =  -4.9438683230088E-01
(PID.TID 0000.0001) %MON exf_uwind_sd                 =   4.4177299791378E+00
(PID.TID 0000.0001) %MON exf_uwind_del2               =   1.2106925509691E-02
(PID.TID 0000.0001) %MON exf_vwind_max                =   8.7166901017803E+00
(PID.TID 0000.0001) %MON exf_vwind_min                =  -6.9963976135900E+00
(PID.TID 0000.0001) %MON exf_vwind_mean               =  -3.7890971062619E-01
(PID.TID 0000.0001) %MON exf_vwind_sd                 =   2.2077985672327E+00
(PID.TID 0000.0001) %MON exf_vwind_del2               =   9.5073057484301E-03
(PID.TID 0000.0001) %MON exf_wspeed_max               =   9.5370989865018E+00
(PID.TID 0000.0001) %MON exf_wspeed_min               =   4.9237853572222E-02
(PID.TID 0000.0001) %MON exf_wspeed_mean              =   4.4775006658428E+00
(PID.TID 0000.0001) %MON exf_wspeed_sd                =   2.1750152592991E+00
(PID.TID 0000.0001) %MON exf_wspeed_del2              =   2.6390282932905E-02
(PID.TID 0000.0001) %MON exf_atemp_max                =   3.0188429548656E+02
(PID.TID 0000.0001) %MON exf_atemp_min                =   2.4476914825976E+02
(PID.TID 0000.0001) %MON exf_atemp_mean               =   2.9041297721735E+02
(PID.TID 0000.0001) %MON exf_atemp_sd                 =   9.7907321035589E+00
(PID.TID 0000.0001) %MON exf_atemp_del2               =   9.0505905104936E-02
(PID.TID 0000.0001) %MON exf_aqh_max                  =   1.9837833511230E-02
(PID.TID 0000.0001) %MON exf_aqh_min                  =   3.5618470170985E-04
(PID.TID 0000.0001) %MON exf_aqh_mean                 =   1.1235053934310E-02
(PID.TID 0000.0001) %MON exf_aqh_sd                   =   5.1802462730064E-03
(PID.TID 0000.0001) %MON exf_aqh_del2                 =   5.8601126497869E-05
(PID.TID 0000.0001) %MON exf_lwflux_max               =   1.5497457469134E+02
(PID.TID 0000.0001) %MON exf_lwflux_min               =   4.3054380559674E+00
(PID.TID 0000.0001) %MON exf_lwflux_mean              =   4.1311822196786E+01
(PID.TID 0000.0001) %MON exf_lwflux_sd                =   1.3588209573041E+01
(PID.TID 0000.0001) %MON exf_lwflux_del2              =   1.9930751162081E-01
(PID.TID 0000.0001) %MON exf_evap_max                 =   8.5140894508737E-08
(PID.TID 0000.0001) %MON exf_evap_min                 =  -1.2833709880599E-08
(PID.TID 0000.0001) %MON exf_evap_mean                =   2.6032917663193E-08
(PID.TID 0000.0001) %MON exf_evap_sd                  =   1.7974017662477E-08
(PID.TID 0000.0001) %MON exf_evap_del2                =   1.6637406699068E-10
(PID.TID 0000.0001) %MON exf_precip_max               =   1.4861864767386E-07
(PID.TID 0000.0001) %MON exf_precip_min               =  -8.5436805366363E-09
(PID.TID 0000.0001) %MON exf_precip_mean              =   3.9996656386216E-08
(PID.TID 0000.0001) %MON exf_precip_sd                =   2.9092183366674E-08
(PID.TID 0000.0001) %MON exf_precip_del2              =   3.1033605504496E-10
(PID.TID 0000.0001) %MON exf_swflux_max               =   3.3128349996995E+01
(PID.TID 0000.0001) %MON exf_swflux_min               =  -3.5303406787864E+02
(PID.TID 0000.0001) %MON exf_swflux_mean              =  -1.9692447360419E+02
(PID.TID 0000.0001) %MON exf_swflux_sd                =   7.3603533959383E+01
(PID.TID 0000.0001) %MON exf_swflux_del2              =   9.3067870732068E-01
(PID.TID 0000.0001) %MON exf_swdown_max               =   3.8080649655751E+02
(PID.TID 0000.0001) %MON exf_swdown_min               =  -4.7326214281422E+01
(PID.TID 0000.0001) %MON exf_swdown_mean              =   2.1342964070877E+02
(PID.TID 0000.0001) %MON exf_swdown_sd                =   7.8891201695237E+01
(PID.TID 0000.0001) %MON exf_swdown_del2              =   1.0071690400679E+00
(PID.TID 0000.0001) %MON exf_lwdown_max               =   4.4360355718755E+02
(PID.TID 0000.0001) %MON exf_lwdown_min               =   1.5696681825171E+02
(PID.TID 0000.0001) %MON exf_lwdown_mean              =   3.6918899772950E+02
(PID.TID 0000.0001) %MON exf_lwdown_sd                =   5.1749032887170E+01
(PID.TID 0000.0001) %MON exf_lwdown_del2              =   1.5869193817493E+00
(PID.TID 0000.0001) %MON exf_runoff_max               =   5.5113170678830E-07
(PID.TID 0000.0001) %MON exf_runoff_min               =   0.0000000000000E+00
(PID.TID 0000.0001) %MON exf_runoff_mean              =   1.7013080098728E-09
(PID.TID 0000.0001) %MON exf_runoff_sd                =   1.1344198760966E-08
(PID.TID 0000.0001) %MON exf_runoff_del2              =   1.2654401632992E-10
(PID.TID 0000.0001) %MON exf_apco2_max                =   3.7074084651162E-04
(PID.TID 0000.0001) %MON exf_apco2_min                =   3.6819522740606E-04
(PID.TID 0000.0001) %MON exf_apco2_mean               =   3.6882202190995E-04
(PID.TID 0000.0001) %MON exf_apco2_sd                 =   5.2305919587067E-07
(PID.TID 0000.0001) %MON exf_apco2_del2               =   1.5223102805777E-06
(PID.TID 0000.0001) // =======================================================
(PID.TID 0000.0001) // End MONITOR EXF statistics
(PID.TID 0000.0001) // =======================================================
 EXTERNAL_FIELDS_LOAD,         3 : iP,iLd,i0,i1=   12    1   12    1 ; Wght=  0.4989583333  0.5010416667
 EXTERNAL_FIELDS_LOAD: (fu0,1),fu,fv=  0.0000E+00  0.0000E+00 -8.5337E-04  2.4529E-02
 EXTERNAL_FIELDS_LOAD: SST,SSS,Q,E-P=  0.0000E+00  0.0000E+00 -1.4153E+02 -4.1159E-05
 DIC_FIELDS_LOAD,         3 : iP,iLd,i0,i1=   12    1   12    1 ; Wght=  0.4989583333  0.5010416667
DEBUG_STATS_RL:          Uvel (THERMODYNAMICS)  min= -2.35996885715314E-01
DEBUG_STATS_RL:          Uvel (THERMODYNAMICS)  max=  1.90528060003389E-01
DEBUG_STATS_RL:          Uvel (THERMODYNAMICS) mean=  4.29502109649299E-03
DEBUG_STATS_RL:          Uvel (THERMODYNAMICS) S.D.=  2.22455692667917E-02
DEBUG_STATS_RL:          Vvel (THERMODYNAMICS)  min= -2.15839109718960E-01
DEBUG_STATS_RL:          Vvel (THERMODYNAMICS)  max=  1.42022667618631E-01
DEBUG_STATS_RL:          Vvel (THERMODYNAMICS) mean= -1.14114287262353E-03
DEBUG_STATS_RL:          Vvel (THERMODYNAMICS) S.D.=  1.35334164665660E-02
DEBUG_STATS_RL:          Wvel (THERMODYNAMICS)  min= -9.43585707567082E-05
DEBUG_STATS_RL:          Wvel (THERMODYNAMICS)  max=  1.32570288091563E-04
DEBUG_STATS_RL:          Wvel (THERMODYNAMICS) mean=  2.77737286173509E-07
DEBUG_STATS_RL:          Wvel (THERMODYNAMICS) S.D.=  7.79857791182903E-06
DEBUG_STATS_RL:         Theta (THERMODYNAMICS)  min= -3.46745424691960E+00
DEBUG_STATS_RL:         Theta (THERMODYNAMICS)  max=  3.02454122886737E+01
DEBUG_STATS_RL:         Theta (THERMODYNAMICS) mean=  6.18036161368455E+00
DEBUG_STATS_RL:         Theta (THERMODYNAMICS) S.D.=  6.76155328765890E+00
DEBUG_STATS_RL:          Salt (THERMODYNAMICS)  min=  3.14845922694125E+01
DEBUG_STATS_RL:          Salt (THERMODYNAMICS)  max=  3.75567827535691E+01
DEBUG_STATS_RL:          Salt (THERMODYNAMICS) mean=  3.46619925796238E+01
DEBUG_STATS_RL:          Salt (THERMODYNAMICS) S.D.=  4.90698117746827E-01
DEBUG_STATS_RL:                   PTRACER.0001  min=  1.64116387769301E+00
DEBUG_STATS_RL:                   PTRACER.0001  max=  2.44295095074309E+00
DEBUG_STATS_RL:                   PTRACER.0001 mean=  2.19530521957928E+00
DEBUG_STATS_RL:                   PTRACER.0001 S.D.=  1.33211093282822E-01
DEBUG_STATS_RL:                   GNm1TRC.0001  min=  0.00000000000000E+00
DEBUG_STATS_RL:                   GNm1TRC.0001  max=  0.00000000000000E+00
DEBUG_STATS_RL:                   GNm1TRC.0001 mean=  0.00000000000000E+00
DEBUG_STATS_RL:                   GNm1TRC.0001 S.D.=  0.00000000000000E+00
DEBUG_STATS_RL:                   PTRACER.0002  min=  1.95002262833517E+00
DEBUG_STATS_RL:                   PTRACER.0002  max=  2.56177916725883E+00
DEBUG_STATS_RL:                   PTRACER.0002 mean=  2.33903774742200E+00
DEBUG_STATS_RL:                   PTRACER.0002 S.D.=  6.29568567620231E-02
DEBUG_STATS_RL:                   GNm1TRC.0002  min=  0.00000000000000E+00
DEBUG_STATS_RL:                   GNm1TRC.0002  max=  0.00000000000000E+00
DEBUG_STATS_RL:                   GNm1TRC.0002 mean=  0.00000000000000E+00
DEBUG_STATS_RL:                   GNm1TRC.0002 S.D.=  0.00000000000000E+00
DEBUG_STATS_RL:                   PTRACER.0003  min=  4.86608171582157E-05
DEBUG_STATS_RL:                   PTRACER.0003  max=  3.29642516519842E-03
DEBUG_STATS_RL:                   PTRACER.0003 mean=  1.74938436042062E-03
DEBUG_STATS_RL:                   PTRACER.0003 S.D.=  8.38790087966108E-04
DEBUG_STATS_RL:                   GNm1TRC.0003  min=  0.00000000000000E+00
DEBUG_STATS_RL:                   GNm1TRC.0003  max=  0.00000000000000E+00
DEBUG_STATS_RL:                   GNm1TRC.0003 mean=  0.00000000000000E+00
DEBUG_STATS_RL:                   GNm1TRC.0003 S.D.=  0.00000000000000E+00
DEBUG_STATS_RL:                   PTRACER.0004  min= -1.89737523896353E-07
DEBUG_STATS_RL:                   PTRACER.0004  max=  3.00245975529911E-04
DEBUG_STATS_RL:                   PTRACER.0004 mean=  2.59070098192476E-05
DEBUG_STATS_RL:                   PTRACER.0004 S.D.=  5.37033952163204E-05
DEBUG_STATS_RL:                   GNm1TRC.0004  min=  0.00000000000000E+00
DEBUG_STATS_RL:                   GNm1TRC.0004  max=  0.00000000000000E+00
DEBUG_STATS_RL:                   GNm1TRC.0004 mean=  0.00000000000000E+00
DEBUG_STATS_RL:                   GNm1TRC.0004 S.D.=  0.00000000000000E+00
DEBUG_STATS_RL:                   PTRACER.0005  min=  3.97549485265019E-03
DEBUG_STATS_RL:                   PTRACER.0005  max=  3.83971927090906E-01
DEBUG_STATS_RL:                   PTRACER.0005 mean=  1.88096474564650E-01
DEBUG_STATS_RL:                   PTRACER.0005 S.D.=  7.98030897723136E-02
DEBUG_STATS_RL:                   GNm1TRC.0005  min=  0.00000000000000E+00
DEBUG_STATS_RL:                   GNm1TRC.0005  max=  0.00000000000000E+00
DEBUG_STATS_RL:                   GNm1TRC.0005 mean=  0.00000000000000E+00
DEBUG_STATS_RL:                   GNm1TRC.0005 S.D.=  0.00000000000000E+00
DEBUG_STATS_RL:                EtaN (DYNAMICS)  min= -1.44298725032907E+00
DEBUG_STATS_RL:                EtaN (DYNAMICS)  max=  9.33728659625909E-01
DEBUG_STATS_RL:                EtaN (DYNAMICS) mean= -1.57626996459026E-01
DEBUG_STATS_RL:                EtaN (DYNAMICS) S.D.=  6.32157486999680E-01
DEBUG_STATS_RL:                Uvel (DYNAMICS)  min= -2.35996885715314E-01
DEBUG_STATS_RL:                Uvel (DYNAMICS)  max=  1.90528060003389E-01
DEBUG_STATS_RL:                Uvel (DYNAMICS) mean=  4.29502109649299E-03
DEBUG_STATS_RL:                Uvel (DYNAMICS) S.D.=  2.22455692667917E-02
DEBUG_STATS_RL:                Vvel (DYNAMICS)  min= -2.15839109718960E-01
DEBUG_STATS_RL:                Vvel (DYNAMICS)  max=  1.42022667618631E-01
DEBUG_STATS_RL:                Vvel (DYNAMICS) mean= -1.14114287262353E-03
DEBUG_STATS_RL:                Vvel (DYNAMICS) S.D.=  1.35334164665660E-02
DEBUG_STATS_RL:                Wvel (DYNAMICS)  min= -9.43585707567082E-05
DEBUG_STATS_RL:                Wvel (DYNAMICS)  max=  1.32570288091563E-04
DEBUG_STATS_RL:                Wvel (DYNAMICS) mean=  2.77737286173509E-07
DEBUG_STATS_RL:                Wvel (DYNAMICS) S.D.=  7.79857791182903E-06
DEBUG_STATS_RL:               Theta (DYNAMICS)  min= -3.46745424691960E+00
DEBUG_STATS_RL:               Theta (DYNAMICS)  max=  3.02454122886737E+01
DEBUG_STATS_RL:               Theta (DYNAMICS) mean=  6.18036161368455E+00
DEBUG_STATS_RL:               Theta (DYNAMICS) S.D.=  6.76155328765890E+00
DEBUG_STATS_RL:                Salt (DYNAMICS)  min=  3.14845922694125E+01
DEBUG_STATS_RL:                Salt (DYNAMICS)  max=  3.75567827535691E+01
DEBUG_STATS_RL:                Salt (DYNAMICS) mean=  3.46619925796238E+01
DEBUG_STATS_RL:                Salt (DYNAMICS) S.D.=  4.90698117746827E-01
DEBUG_STATS_RL:                  Gu (DYNAMICS)  min= -2.35960116802783E-01
DEBUG_STATS_RL:                  Gu (DYNAMICS)  max=  1.90723313723172E-01
DEBUG_STATS_RL:                  Gu (DYNAMICS) mean=  4.25227387097696E-03
DEBUG_STATS_RL:                  Gu (DYNAMICS) S.D.=  2.23094563259219E-02
DEBUG_STATS_RL:                  Gv (DYNAMICS)  min= -2.15758889315671E-01
DEBUG_STATS_RL:                  Gv (DYNAMICS)  max=  1.39099278469687E-01
DEBUG_STATS_RL:                  Gv (DYNAMICS) mean= -5.49860492415617E-04
DEBUG_STATS_RL:                  Gv (DYNAMICS) S.D.=  1.33918527265337E-02
DEBUG_STATS_RL:    cg2d_b (SOLVE_FOR_PRESSURE)  min= -1.12986744199372E+05
DEBUG_STATS_RL:    cg2d_b (SOLVE_FOR_PRESSURE)  max=  9.06789532032673E+04
DEBUG_STATS_RL:    cg2d_b (SOLVE_FOR_PRESSURE) mean= -7.54797972331616E-06
DEBUG_STATS_RL:    cg2d_b (SOLVE_FOR_PRESSURE) S.D.=  4.76523402689719E+04
 cg2d: Sum(rhs),rhsMax =  -2.97077502153797E-07  7.95118894552121E+00
(PID.TID 0000.0001)  cg2d: iter=     1 ; resid.=  1.25947746353827E-01
(PID.TID 0000.0001)  cg2d: iter=     2 ; resid.=  3.67394545284752E-02
(PID.TID 0000.0001)  cg2d: iter=     3 ; resid.=  1.11816891190145E-02
(PID.TID 0000.0001)  cg2d: iter=     4 ; resid.=  3.56278347203823E-03
(PID.TID 0000.0001)  cg2d: iter=     5 ; resid.=  1.17132614514613E-03
(PID.TID 0000.0001)  cg2d: iter=     6 ; resid.=  3.94311407381380E-04
(PID.TID 0000.0001)  cg2d: iter=     7 ; resid.=  1.42219604604829E-04
(PID.TID 0000.0001)  cg2d: iter=     8 ; resid.=  5.58295797038457E-05
(PID.TID 0000.0001)  cg2d: iter=     9 ; resid.=  1.79495380216836E-05
(PID.TID 0000.0001)  cg2d: iter=    10 ; resid.=  5.74183784247576E-06
(PID.TID 0000.0001)  cg2d: iter=    11 ; resid.=  1.96891201595611E-06
(PID.TID 0000.0001)  cg2d: iter=    12 ; resid.=  5.91060423232527E-07
(PID.TID 0000.0001)  cg2d: iter=    13 ; resid.=  1.72191252919420E-07
(PID.TID 0000.0001)  cg2d: iter=    14 ; resid.=  5.11529242622791E-08
(PID.TID 0000.0001)  cg2d: iter=    15 ; resid.=  1.43315381539711E-08
(PID.TID 0000.0001)  cg2d: iter=    16 ; resid.=  4.06893932875284E-09
(PID.TID 0000.0001)  cg2d: iter=    17 ; resid.=  1.20904924648322E-09
(PID.TID 0000.0001)  cg2d: iter=    18 ; resid.=  3.61240378527516E-10
(PID.TID 0000.0001)  cg2d: iter=    19 ; resid.=  1.17566386043823E-10
(PID.TID 0000.0001)  cg2d: iter=    20 ; resid.=  4.42943364402631E-11
(PID.TID 0000.0001)  cg2d: iter=    21 ; resid.=  1.63132042164669E-11
(PID.TID 0000.0001)  cg2d: iter=    22 ; resid.=  4.96294109988945E-12
(PID.TID 0000.0001)  cg2d: iter=    23 ; resid.=  1.65512974526028E-12
(PID.TID 0000.0001)  cg2d: iter=    24 ; resid.=  5.79782386259171E-13
(PID.TID 0000.0001)  cg2d: iter=    25 ; resid.=  1.83820595801032E-13
(PID.TID 0000.0001)  cg2d: iter=    26 ; resid.=  5.75403177404312E-14
DEBUG_STATS_RL:    cg2d_x (SOLVE_FOR_PRESSURE)  min= -1.41786248117371E+01
DEBUG_STATS_RL:    cg2d_x (SOLVE_FOR_PRESSURE)  max=  9.04126234892153E+00
DEBUG_STATS_RL:    cg2d_x (SOLVE_FOR_PRESSURE) mean= -1.53967681237326E+00
DEBUG_STATS_RL:    cg2d_x (SOLVE_FOR_PRESSURE) S.D.=  6.16108879289696E+00
(PID.TID 0000.0001)      cg2d_init_res =   4.76950671986065E-01
(PID.TID 0000.0001)      cg2d_iters(min,last) =      -1      26
(PID.TID 0000.0001)      cg2d_last_res =   5.75403177404312E-14
(PID.TID 0000.0001) // =======================================================
(PID.TID 0000.0001) // Begin MONITOR dynamic field statistics
(PID.TID 0000.0001) // =======================================================
(PID.TID 0000.0001) %MON time_tsnumber                =                     4
(PID.TID 0000.0001) %MON time_secondsf                =   3.6000000000000E+03
(PID.TID 0000.0001) %MON dynstat_eta_max              =   9.2163734443645E-01
(PID.TID 0000.0001) %MON dynstat_eta_min              =  -1.4453236301465E+00
(PID.TID 0000.0001) %MON dynstat_eta_mean             =   8.2306352448220E-11
(PID.TID 0000.0001) %MON dynstat_eta_sd               =   5.5493346512511E-01
(PID.TID 0000.0001) %MON dynstat_eta_del2             =   8.7168295992748E-04
(PID.TID 0000.0001) %MON dynstat_uvel_max             =   1.9068657080762E-01
(PID.TID 0000.0001) %MON dynstat_uvel_min             =  -2.3588030214735E-01
(PID.TID 0000.0001) %MON dynstat_uvel_mean            =   1.8345625931516E-03
(PID.TID 0000.0001) %MON dynstat_uvel_sd              =   1.3001589133009E-02
(PID.TID 0000.0001) %MON dynstat_uvel_del2            =   4.9907818066108E-05
(PID.TID 0000.0001) %MON dynstat_vvel_max             =   1.3882289145309E-01
(PID.TID 0000.0001) %MON dynstat_vvel_min             =  -2.1525972254342E-01
(PID.TID 0000.0001) %MON dynstat_vvel_mean            =  -9.4525540500847E-04
(PID.TID 0000.0001) %MON dynstat_vvel_sd              =   8.2335820014825E-03
(PID.TID 0000.0001) %MON dynstat_vvel_del2            =   4.1389145131734E-05
(PID.TID 0000.0001) %MON dynstat_wvel_max             =   1.9801885019335E-04
(PID.TID 0000.0001) %MON dynstat_wvel_min             =  -1.1862628397880E-04
(PID.TID 0000.0001) %MON dynstat_wvel_mean            =  -2.2971358339083E-16
(PID.TID 0000.0001) %MON dynstat_wvel_sd              =   7.7531389241317E-06
(PID.TID 0000.0001) %MON dynstat_wvel_del2            =   6.9790729893222E-08
(PID.TID 0000.0001) %MON dynstat_theta_max            =   3.0245412288674E+01
(PID.TID 0000.0001) %MON dynstat_theta_min            =  -3.4674542469196E+00
(PID.TID 0000.0001) %MON dynstat_theta_mean           =   3.8021435801218E+00
(PID.TID 0000.0001) %MON dynstat_theta_sd             =   4.5123151749771E+00
(PID.TID 0000.0001) %MON dynstat_theta_del2           =   2.5985195612388E-03
(PID.TID 0000.0001) %MON dynstat_salt_max             =   3.7556782753569E+01
(PID.TID 0000.0001) %MON dynstat_salt_min             =   3.1484592269413E+01
(PID.TID 0000.0001) %MON dynstat_salt_mean            =   3.4614648156382E+01
(PID.TID 0000.0001) %MON dynstat_salt_sd              =   3.1408494304201E-01
(PID.TID 0000.0001) %MON dynstat_salt_del2            =   4.0537261900380E-04
(PID.TID 0000.0001) %MON forcing_qnet_max             =   3.5026111583366E+02
(PID.TID 0000.0001) %MON forcing_qnet_min             =  -3.3216804464290E+02
(PID.TID 0000.0001) %MON forcing_qnet_mean            =  -8.2631343762640E+01
(PID.TID 0000.0001) %MON forcing_qnet_sd              =   9.8288616578556E+01
(PID.TID 0000.0001) %MON forcing_qnet_del2            =   5.9157541637435E-01
(PID.TID 0000.0001) %MON forcing_qsw_max              =   3.3128349996995E+01
(PID.TID 0000.0001) %MON forcing_qsw_min              =  -3.5303406787864E+02
(PID.TID 0000.0001) %MON forcing_qsw_mean             =  -1.9660891951029E+02
(PID.TID 0000.0001) %MON forcing_qsw_sd               =   7.3856345072886E+01
(PID.TID 0000.0001) %MON forcing_qsw_del2             =   3.3339642222301E-01
(PID.TID 0000.0001) %MON forcing_empmr_max            =   8.2725601609375E-04
(PID.TID 0000.0001) %MON forcing_empmr_min            =  -6.3532691844657E-04
(PID.TID 0000.0001) %MON forcing_empmr_mean           =  -1.4915999822759E-05
(PID.TID 0000.0001) %MON forcing_empmr_sd             =   4.3465016523928E-05
(PID.TID 0000.0001) %MON forcing_empmr_del2           =   8.0965865592651E-07
(PID.TID 0000.0001) %MON forcing_fu_max               =   1.3086590852313E-01
(PID.TID 0000.0001) %MON forcing_fu_min               =  -1.1233530891618E-01
(PID.TID 0000.0001) %MON forcing_fu_mean              =  -4.3594906541838E-03
(PID.TID 0000.0001) %MON forcing_fu_sd                =   4.0501162868790E-02
(PID.TID 0000.0001) %MON forcing_fu_del2              =   1.3881291770532E-04
(PID.TID 0000.0001) %MON forcing_fv_max               =   9.4390664796981E-02
(PID.TID 0000.0001) %MON forcing_fv_min               =  -9.5459547327761E-02
(PID.TID 0000.0001) %MON forcing_fv_mean              =  -3.4076748274380E-03
(PID.TID 0000.0001) %MON forcing_fv_sd                =   1.7672707574013E-02
(PID.TID 0000.0001) %MON forcing_fv_del2              =   8.2956646501520E-05
(PID.TID 0000.0001) %MON trAdv_CFL_u_max              =   7.2411325608397E-04
(PID.TID 0000.0001) %MON trAdv_CFL_v_max              =   6.2074653203788E-04
(PID.TID 0000.0001) %MON trAdv_CFL_w_max              =   1.3777555609873E-03
(PID.TID 0000.0001) %MON advcfl_uvel_max              =   7.3227301338547E-04
(PID.TID 0000.0001) %MON advcfl_vvel_max              =   6.1957795169332E-04
(PID.TID 0000.0001) %MON advcfl_wvel_max              =   3.0338056982851E-03
(PID.TID 0000.0001) %MON advcfl_W_hf_max              =   1.3029624443247E-03
(PID.TID 0000.0001) %MON pe_b_mean                    =   3.9690403741686E-04
(PID.TID 0000.0001) %MON ke_max                       =   3.0830421152156E-02
(PID.TID 0000.0001) %MON ke_mean                      =   1.1156830584262E-04
(PID.TID 0000.0001) %MON ke_vol                       =   1.2571476858570E+18
(PID.TID 0000.0001) %MON vort_r_min                   =  -8.7969780447813E-07
(PID.TID 0000.0001) %MON vort_r_max                   =   9.9930850086063E-07
(PID.TID 0000.0001) %MON vort_a_mean                  =  -2.4002453570026E-05
(PID.TID 0000.0001) %MON vort_a_sd                    =   7.3138174190686E-05
(PID.TID 0000.0001) %MON vort_p_mean                  =  -2.8585773838204E-05
(PID.TID 0000.0001) %MON vort_p_sd                    =   1.1453389974412E-04
(PID.TID 0000.0001) %MON surfExpan_theta_mean         =  -2.1434310714424E-05
(PID.TID 0000.0001) %MON surfExpan_salt_mean          =  -1.8655692745718E-06
(PID.TID 0000.0001) // =======================================================
(PID.TID 0000.0001) // End MONITOR dynamic field statistics
(PID.TID 0000.0001) // =======================================================
(PID.TID 0000.0001)  MDS_WRITE_FIELD: it,rec,kS,kL,kH=       4     1  15   1  15 file=U.0000000004
(PID.TID 0000.0001)  MDS_WRITE_FIELD: it,rec,kS,kL,kH=       4     1  15   1  15 file=V.0000000004
(PID.TID 0000.0001)  MDS_WRITE_FIELD: it,rec,kS,kL,kH=       4     1  15   1  15 file=T.0000000004
(PID.TID 0000.0001)  MDS_WRITE_FIELD: it,rec,kS,kL,kH=       4     1  15   1  15 file=S.0000000004
(PID.TID 0000.0001)  MDS_WRITE_FIELD: it,rec,kS,kL,kH=       4     1   1   1   1 file=Eta.0000000004
(PID.TID 0000.0001)  MDS_WRITE_FIELD: it,rec,kS,kL,kH=       4     1  15   1  15 file=W.0000000004
(PID.TID 0000.0001)  MDS_WRITE_FIELD: it,rec,kS,kL,kH=       4     1  15   1  15 file=PH.0000000004
(PID.TID 0000.0001)  MDS_WRITE_FIELD: it,rec,kS,kL,kH=       4     1   1   1   1 file=PHL.0000000004
(PID.TID 0000.0001) // =======================================================
(PID.TID 0000.0001) // Begin MONITOR SEAICE statistics
(PID.TID 0000.0001) // =======================================================
(PID.TID 0000.0001) %MON seaice_tsnumber              =                     4
(PID.TID 0000.0001) %MON seaice_time_sec              =   3.6000000000000E+03
(PID.TID 0000.0001) %MON seaice_uice_max              =   2.8569095016514E-01
(PID.TID 0000.0001) %MON seaice_uice_min              =  -3.6579701180193E-01
(PID.TID 0000.0001) %MON seaice_uice_mean             =  -3.4936981240547E-03
(PID.TID 0000.0001) %MON seaice_uice_sd               =   1.0289825162145E-01
(PID.TID 0000.0001) %MON seaice_uice_del2             =   5.3157032581015E-04
(PID.TID 0000.0001) %MON seaice_vice_max              =   1.5409450743376E-01
(PID.TID 0000.0001) %MON seaice_vice_min              =  -2.6805496517487E-01
(PID.TID 0000.0001) %MON seaice_vice_mean             =  -7.5920436994326E-03
(PID.TID 0000.0001) %MON seaice_vice_sd               =   3.9425864415909E-02
(PID.TID 0000.0001) %MON seaice_vice_del2             =   3.4284035614436E-04
(PID.TID 0000.0001) %MON seaice_area_max              =   9.5000000000000E-01
(PID.TID 0000.0001) %MON seaice_area_min              =   0.0000000000000E+00
(PID.TID 0000.0001) %MON seaice_area_mean             =   4.7130949973218E-03
(PID.TID 0000.0001) %MON seaice_area_sd               =   6.6639100593587E-02
(PID.TID 0000.0001) %MON seaice_area_del2             =   1.9397378983423E-03
(PID.TID 0000.0001) %MON seaice_heff_max              =   1.0010552045180E+00
(PID.TID 0000.0001) %MON seaice_heff_min              =   0.0000000000000E+00
(PID.TID 0000.0001) %MON seaice_heff_mean             =   4.9509245104544E-03
(PID.TID 0000.0001) %MON seaice_heff_sd               =   7.0143774324820E-02
(PID.TID 0000.0001) %MON seaice_heff_del2             =   2.0458750675180E-03
(PID.TID 0000.0001) %MON seaice_hsnow_max             =   2.0037548167123E-01
(PID.TID 0000.0001) %MON seaice_hsnow_min             =   0.0000000000000E+00
(PID.TID 0000.0001) %MON seaice_hsnow_mean            =   9.9023025273352E-04
(PID.TID 0000.0001) %MON seaice_hsnow_sd              =   1.4038725338585E-02
(PID.TID 0000.0001) %MON seaice_hsnow_del2            =   4.0973442926736E-04
(PID.TID 0000.0001) // =======================================================
(PID.TID 0000.0001) // End MONITOR SEAICE statistics
(PID.TID 0000.0001) // =======================================================
(PID.TID 0000.0001)  MDS_WRITE_FIELD: it,rec,kS,kL,kH=       4     1  15   1  15 file=PTRACER01.0000000004
(PID.TID 0000.0001)  MDS_WRITE_FIELD: it,rec,kS,kL,kH=       4     1  15   1  15 file=PTRACER02.0000000004
(PID.TID 0000.0001)  MDS_WRITE_FIELD: it,rec,kS,kL,kH=       4     1  15   1  15 file=PTRACER03.0000000004
(PID.TID 0000.0001)  MDS_WRITE_FIELD: it,rec,kS,kL,kH=       4     1  15   1  15 file=PTRACER04.0000000004
(PID.TID 0000.0001)  MDS_WRITE_FIELD: it,rec,kS,kL,kH=       4     1  15   1  15 file=PTRACER05.0000000004
(PID.TID 0000.0001) // =======================================================
(PID.TID 0000.0001) // Begin MONITOR ptracer field statistics
(PID.TID 0000.0001) // =======================================================
(PID.TID 0000.0001) %MON trcstat_ptracer01_max        =   2.4429509593116E+00
(PID.TID 0000.0001) %MON trcstat_ptracer01_min        =   1.6411635816718E+00
(PID.TID 0000.0001) %MON trcstat_ptracer01_mean       =   2.2619454987415E+00
(PID.TID 0000.0001) %MON trcstat_ptracer01_sd         =   1.0331314815340E-01
(PID.TID 0000.0001) %MON trcstat_ptracer01_del2       =   3.5365779799310E-05
(PID.TID 0000.0001) %MON trcstat_ptracer02_max        =   2.5617791514321E+00
(PID.TID 0000.0001) %MON trcstat_ptracer02_min        =   1.9500226333925E+00
(PID.TID 0000.0001) %MON trcstat_ptracer02_mean       =   2.3641948910342E+00
(PID.TID 0000.0001) %MON trcstat_ptracer02_sd         =   4.9629957648054E-02
(PID.TID 0000.0001) %MON trcstat_ptracer02_del2       =   2.3378623040461E-05
(PID.TID 0000.0001) %MON trcstat_ptracer03_max        =   3.2964254630417E-03
(PID.TID 0000.0001) %MON trcstat_ptracer03_min        =   4.8659026982929E-05
(PID.TID 0000.0001) %MON trcstat_ptracer03_mean       =   2.1265719813378E-03
(PID.TID 0000.0001) %MON trcstat_ptracer03_sd         =   6.9838365468371E-04
(PID.TID 0000.0001) %MON trcstat_ptracer03_del2       =   2.2274376712227E-07
(PID.TID 0000.0001) %MON trcstat_ptracer04_max        =   3.0024720004609E-04
(PID.TID 0000.0001) %MON trcstat_ptracer04_min        =  -1.8972654371557E-07
(PID.TID 0000.0001) %MON trcstat_ptracer04_mean       =   5.9487624550031E-06
(PID.TID 0000.0001) %MON trcstat_ptracer04_sd         =   2.6309642809304E-05
(PID.TID 0000.0001) %MON trcstat_ptracer04_del2       =   3.2493649484956E-08
(PID.TID 0000.0001) %MON trcstat_ptracer05_max        =   3.8397152910118E-01
(PID.TID 0000.0001) %MON trcstat_ptracer05_min        =   3.9754948526502E-03
(PID.TID 0000.0001) %MON trcstat_ptracer05_mean       =   1.6196377544504E-01
(PID.TID 0000.0001) %MON trcstat_ptracer05_sd         =   7.3415337099249E-02
(PID.TID 0000.0001) %MON trcstat_ptracer05_del2       =   3.1007118426301E-05
(PID.TID 0000.0001) // =======================================================
(PID.TID 0000.0001) // End MONITOR ptracers field statistics
(PID.TID 0000.0001) // =======================================================
(PID.TID 0000.0001)  MDS_WRITE_FIELD: it,rec,kS,kL,kH=       4     1  15   1  15 file=pickup_cd.ckptA
(PID.TID 0000.0001)  MDS_WRITE_FIELD: it,rec,kS,kL,kH=       4     2  15   1  15 file=pickup_cd.ckptA
(PID.TID 0000.0001)  MDS_WRITE_FIELD: it,rec,kS,kL,kH=       4     3  15   1  15 file=pickup_cd.ckptA
(PID.TID 0000.0001)  MDS_WRITE_FIELD: it,rec,kS,kL,kH=       4     4  15   1  15 file=pickup_cd.ckptA
(PID.TID 0000.0001)  MDS_WRITE_FIELD: it,rec,kS,kL,kH=       4    61   1   1   1 file=pickup_cd.ckptA
(PID.TID 0000.0001)  MDS_WRITE_FIELD: it,rec,kS,kL,kH=       4     1  15   1  15 file=pickup_ggl90.ckptA
(PID.TID 0000.0001)  MDS_WRITE_FIELD: it,rec,kS,kL,kH=       4    -1  15   1  15 file=pickup_ptracers.ckptA
(PID.TID 0000.0001)  MDS_WRITE_FIELD: it,rec,kS,kL,kH=       4    -2  15   1  15 file=pickup_ptracers.ckptA
(PID.TID 0000.0001)  MDS_WRITE_FIELD: it,rec,kS,kL,kH=       4    -3  15   1  15 file=pickup_ptracers.ckptA
(PID.TID 0000.0001)  MDS_WRITE_FIELD: it,rec,kS,kL,kH=       4    -4  15   1  15 file=pickup_ptracers.ckptA
(PID.TID 0000.0001)  MDS_WRITE_FIELD: it,rec,kS,kL,kH=       4    -5  15   1  15 file=pickup_ptracers.ckptA
(PID.TID 0000.0001)  MDS_WRITE_FIELD: it,rec,kS,kL,kH=       4    -1   1   1   1 file=pickup_dic.ckptA
(PID.TID 0000.0001)  MDS_WRITE_FIELD: it,rec,kS,kL,kH=       4    -1   7   1   1 file=pickup_seaice.ckptA
(PID.TID 0000.0001)  MDS_WRITE_FIELD: it,rec,kS,kL,kH=       4    -2   1   1   1 file=pickup_seaice.ckptA
(PID.TID 0000.0001)  MDS_WRITE_FIELD: it,rec,kS,kL,kH=       4    -3   1   1   1 file=pickup_seaice.ckptA
(PID.TID 0000.0001)  MDS_WRITE_FIELD: it,rec,kS,kL,kH=       4    -4   1   1   1 file=pickup_seaice.ckptA
(PID.TID 0000.0001)  MDS_WRITE_FIELD: it,rec,kS,kL,kH=       4    -5   1   1   1 file=pickup_seaice.ckptA
(PID.TID 0000.0001)  MDS_WRITE_FIELD: it,rec,kS,kL,kH=       4    -6   1   1   1 file=pickup_seaice.ckptA
(PID.TID 0000.0001)  MDS_WRITE_FIELD: it,rec,kS,kL,kH=       4    -7   1   1   1 file=pickup_seaice.ckptA
(PID.TID 0000.0001)  MDS_WRITE_FIELD: it,rec,kS,kL,kH=       4    -8   1   1   1 file=pickup_seaice.ckptA
(PID.TID 0000.0001)  MDS_WRITE_FIELD: it,rec,kS,kL,kH=       4    -9   1   1   1 file=pickup_seaice.ckptA
(PID.TID 0000.0001)  MDS_WRITE_FIELD: it,rec,kS,kL,kH=       4    -1  15   1  15 file=pickup.ckptA
(PID.TID 0000.0001)  MDS_WRITE_FIELD: it,rec,kS,kL,kH=       4    -2  15   1  15 file=pickup.ckptA
(PID.TID 0000.0001)  MDS_WRITE_FIELD: it,rec,kS,kL,kH=       4    -3  15   1  15 file=pickup.ckptA
(PID.TID 0000.0001)  MDS_WRITE_FIELD: it,rec,kS,kL,kH=       4    -4  15   1  15 file=pickup.ckptA
(PID.TID 0000.0001)  MDS_WRITE_FIELD: it,rec,kS,kL,kH=       4    -5  15   1  15 file=pickup.ckptA
(PID.TID 0000.0001)  MDS_WRITE_FIELD: it,rec,kS,kL,kH=       4    -6  15   1  15 file=pickup.ckptA
(PID.TID 0000.0001)  MDS_WRITE_FIELD: it,rec,kS,kL,kH=       4    -7  15   1  15 file=pickup.ckptA
(PID.TID 0000.0001)  MDS_WRITE_FIELD: it,rec,kS,kL,kH=       4    -8  15   1  15 file=pickup.ckptA
(PID.TID 0000.0001)  MDS_WRITE_FIELD: it,rec,kS,kL,kH=       4    -9  15   1  15 file=pickup.ckptA
(PID.TID 0000.0001)  MDS_WRITE_FIELD: it,rec,kS,kL,kH=       4   -10  15   1  15 file=pickup.ckptA
(PID.TID 0000.0001)  MDS_WRITE_FIELD: it,rec,kS,kL,kH=       4   -11  15   1  15 file=pickup.ckptA
(PID.TID 0000.0001)  MDS_WRITE_FIELD: it,rec,kS,kL,kH=       4   -12  15   1  15 file=pickup.ckptA
(PID.TID 0000.0001)  MDS_WRITE_FIELD: it,rec,kS,kL,kH=       4  -181   1   1   1 file=pickup.ckptA
(PID.TID 0000.0001)  MDS_WRITE_FIELD: it,rec,kS,kL,kH=       4  -182   1   1   1 file=pickup.ckptA
(PID.TID 0000.0001)  MDS_WRITE_FIELD: it,rec,kS,kL,kH=       4  -183   1   1   1 file=pickup.ckptA
(PID.TID 0000.0001) %CHECKPOINT         4 ckptA
(PID.TID 0000.0001)   Seconds in section "ALL                    [THE_MODEL_MAIN]":
(PID.TID 0000.0001)           User time:   1.4107779811602086
(PID.TID 0000.0001)         System time:  0.18185700429603457
(PID.TID 0000.0001)     Wall clock time:   1.6000499725341797
(PID.TID 0000.0001)          No. starts:           1
(PID.TID 0000.0001)           No. stops:           1
(PID.TID 0000.0001)   Seconds in section "INITIALISE_FIXED       [THE_MODEL_MAIN]":
(PID.TID 0000.0001)           User time:  0.36204998916946352
(PID.TID 0000.0001)         System time:   3.1405000248923898E-002
(PID.TID 0000.0001)     Wall clock time:  0.39514899253845215
(PID.TID 0000.0001)          No. starts:           1
(PID.TID 0000.0001)           No. stops:           1
(PID.TID 0000.0001)   Seconds in section "THE_MAIN_LOOP          [THE_MODEL_MAIN]":
(PID.TID 0000.0001)           User time:   1.0487030148506165
(PID.TID 0000.0001)         System time:  0.15044500306248665
(PID.TID 0000.0001)     Wall clock time:   1.2048738002777100
(PID.TID 0000.0001)          No. starts:           1
(PID.TID 0000.0001)           No. stops:           1
(PID.TID 0000.0001)   Seconds in section "INITIALISE_VARIA    [THE_MAIN_LOOP]":
(PID.TID 0000.0001)           User time:   8.2451999187469482E-002
(PID.TID 0000.0001)         System time:   7.2053004056215286E-002
(PID.TID 0000.0001)     Wall clock time:  0.15761089324951172
(PID.TID 0000.0001)          No. starts:           1
(PID.TID 0000.0001)           No. stops:           1
(PID.TID 0000.0001)   Seconds in section "MAIN LOOP           [THE_MAIN_LOOP]":
(PID.TID 0000.0001)           User time:  0.96623092889785767
(PID.TID 0000.0001)         System time:   7.8389003872871399E-002
(PID.TID 0000.0001)     Wall clock time:   1.0472428798675537
(PID.TID 0000.0001)          No. starts:           1
(PID.TID 0000.0001)           No. stops:           1
(PID.TID 0000.0001)   Seconds in section "MAIN_DO_LOOP        [THE_MAIN_LOOP]":
(PID.TID 0000.0001)           User time:  0.96620103716850281
(PID.TID 0000.0001)         System time:   7.8388005495071411E-002
(PID.TID 0000.0001)     Wall clock time:   1.0472109317779541
(PID.TID 0000.0001)          No. starts:           4
(PID.TID 0000.0001)           No. stops:           4
(PID.TID 0000.0001)   Seconds in section "FORWARD_STEP        [MAIN_DO_LOOP]":
(PID.TID 0000.0001)           User time:  0.96615105867385864
(PID.TID 0000.0001)         System time:   7.8387007117271423E-002
(PID.TID 0000.0001)     Wall clock time:   1.0471591949462891
(PID.TID 0000.0001)          No. starts:           4
(PID.TID 0000.0001)           No. stops:           4
(PID.TID 0000.0001)   Seconds in section "DO_STATEVARS_DIAGS  [FORWARD_STEP]":
(PID.TID 0000.0001)           User time:   3.6495923995971680E-004
(PID.TID 0000.0001)         System time:   1.4998018741607666E-005
(PID.TID 0000.0001)     Wall clock time:   3.8599967956542969E-004
(PID.TID 0000.0001)          No. starts:           8
(PID.TID 0000.0001)           No. stops:           8
(PID.TID 0000.0001)   Seconds in section "LOAD_FIELDS_DRIVER  [FORWARD_STEP]":
(PID.TID 0000.0001)           User time:   3.7203937768936157E-002
(PID.TID 0000.0001)         System time:   4.0619894862174988E-003
(PID.TID 0000.0001)     Wall clock time:   4.1837930679321289E-002
(PID.TID 0000.0001)          No. starts:           4
(PID.TID 0000.0001)           No. stops:           4
(PID.TID 0000.0001)   Seconds in section "EXF_GETFORCING     [LOAD_FLDS_DRIVER]":
(PID.TID 0000.0001)           User time:   3.6132991313934326E-002
(PID.TID 0000.0001)         System time:   3.0359998345375061E-003
(PID.TID 0000.0001)     Wall clock time:   3.9186954498291016E-002
(PID.TID 0000.0001)          No. starts:           4
(PID.TID 0000.0001)           No. stops:           4
(PID.TID 0000.0001)   Seconds in section "EXTERNAL_FLDS_LOAD [LOAD_FLDS_DRIVER]":
(PID.TID 0000.0001)           User time:   3.3792853355407715E-004
(PID.TID 0000.0001)         System time:   4.0009617805480957E-006
(PID.TID 0000.0001)     Wall clock time:   3.4594535827636719E-004
(PID.TID 0000.0001)          No. starts:           4
(PID.TID 0000.0001)           No. stops:           4
(PID.TID 0000.0001)   Seconds in section "DO_ATMOSPHERIC_PHYS [FORWARD_STEP]":
(PID.TID 0000.0001)           User time:   2.6911497116088867E-005
(PID.TID 0000.0001)         System time:   4.0009617805480957E-006
(PID.TID 0000.0001)     Wall clock time:   3.2901763916015625E-005
(PID.TID 0000.0001)          No. starts:           4
(PID.TID 0000.0001)           No. stops:           4
(PID.TID 0000.0001)   Seconds in section "DO_OCEANIC_PHYS     [FORWARD_STEP]":
(PID.TID 0000.0001)           User time:  0.18213701248168945
(PID.TID 0000.0001)         System time:   2.3930072784423828E-003
(PID.TID 0000.0001)     Wall clock time:  0.18454098701477051
(PID.TID 0000.0001)          No. starts:           4
(PID.TID 0000.0001)           No. stops:           4
(PID.TID 0000.0001)   Seconds in section "SEAICE_MODEL    [DO_OCEANIC_PHYS]":
(PID.TID 0000.0001)           User time:   5.3473085165023804E-002
(PID.TID 0000.0001)         System time:   7.5100362300872803E-004
(PID.TID 0000.0001)     Wall clock time:   5.4233789443969727E-002
(PID.TID 0000.0001)          No. starts:           4
(PID.TID 0000.0001)           No. stops:           4
(PID.TID 0000.0001)   Seconds in section "SEAICE_DYNSOLVER   [SEAICE_MODEL]":
(PID.TID 0000.0001)           User time:   4.2585939168930054E-002
(PID.TID 0000.0001)         System time:   4.3399631977081299E-004
(PID.TID 0000.0001)     Wall clock time:   4.3034076690673828E-002
(PID.TID 0000.0001)          No. starts:           4
(PID.TID 0000.0001)           No. stops:           4
(PID.TID 0000.0001)   Seconds in section "GGL90_CALC [DO_OCEANIC_PHYS]":
(PID.TID 0000.0001)           User time:   4.6309053897857666E-002
(PID.TID 0000.0001)         System time:   1.3900101184844971E-003
(PID.TID 0000.0001)     Wall clock time:   4.7694206237792969E-002
(PID.TID 0000.0001)          No. starts:          16
(PID.TID 0000.0001)           No. stops:          16
(PID.TID 0000.0001)   Seconds in section "GCHEM_CALC_TENDENCY [FORWARD_STEP]":
(PID.TID 0000.0001)           User time:   2.3961067199707031E-005
(PID.TID 0000.0001)         System time:   1.9967555999755859E-006
(PID.TID 0000.0001)     Wall clock time:   2.4795532226562500E-005
(PID.TID 0000.0001)          No. starts:           4
(PID.TID 0000.0001)           No. stops:           4
(PID.TID 0000.0001)   Seconds in section "THERMODYNAMICS      [FORWARD_STEP]":
(PID.TID 0000.0001)           User time:  0.43065804243087769
(PID.TID 0000.0001)         System time:   1.4479979872703552E-003
(PID.TID 0000.0001)     Wall clock time:  0.43213129043579102
(PID.TID 0000.0001)          No. starts:           4
(PID.TID 0000.0001)           No. stops:           4
(PID.TID 0000.0001)   Seconds in section "DYNAMICS            [FORWARD_STEP]":
(PID.TID 0000.0001)           User time:  0.13086110353469849
(PID.TID 0000.0001)         System time:   1.3629868626594543E-003
(PID.TID 0000.0001)     Wall clock time:  0.13224887847900391
(PID.TID 0000.0001)          No. starts:           4
(PID.TID 0000.0001)           No. stops:           4
(PID.TID 0000.0001)   Seconds in section "UPDATE_SURF_DR      [FORWARD_STEP]":
(PID.TID 0000.0001)           User time:   2.0140409469604492E-003
(PID.TID 0000.0001)         System time:   3.2998621463775635E-005
(PID.TID 0000.0001)     Wall clock time:   2.0499229431152344E-003
(PID.TID 0000.0001)          No. starts:           4
(PID.TID 0000.0001)           No. stops:           4
(PID.TID 0000.0001)   Seconds in section "SOLVE_FOR_PRESSURE  [FORWARD_STEP]":
(PID.TID 0000.0001)           User time:   1.1804163455963135E-002
(PID.TID 0000.0001)         System time:   2.5000423192977905E-004
(PID.TID 0000.0001)     Wall clock time:   1.2057781219482422E-002
(PID.TID 0000.0001)          No. starts:           4
(PID.TID 0000.0001)           No. stops:           4
(PID.TID 0000.0001)   Seconds in section "MOM_CORRECTION_STEP [FORWARD_STEP]":
(PID.TID 0000.0001)           User time:   2.8860569000244141E-003
(PID.TID 0000.0001)         System time:   4.9993395805358887E-006
(PID.TID 0000.0001)     Wall clock time:   2.8941631317138672E-003
(PID.TID 0000.0001)          No. starts:           4
(PID.TID 0000.0001)           No. stops:           4
(PID.TID 0000.0001)   Seconds in section "INTEGR_CONTINUITY   [FORWARD_STEP]":
(PID.TID 0000.0001)           User time:   2.2710561752319336E-003
(PID.TID 0000.0001)         System time:   0.0000000000000000
(PID.TID 0000.0001)     Wall clock time:   2.2757053375244141E-003
(PID.TID 0000.0001)          No. starts:           4
(PID.TID 0000.0001)           No. stops:           4
(PID.TID 0000.0001)   Seconds in section "TRC_CORRECTION_STEP [FORWARD_STEP]":
(PID.TID 0000.0001)           User time:   2.4020671844482422E-005
(PID.TID 0000.0001)         System time:   1.0058283805847168E-006
(PID.TID 0000.0001)     Wall clock time:   2.4795532226562500E-005
(PID.TID 0000.0001)          No. starts:           4
(PID.TID 0000.0001)           No. stops:           4
(PID.TID 0000.0001)   Seconds in section "GCHEM_FORCING_SEP  [FORWARD_STEP]":
(PID.TID 0000.0001)           User time:   8.8084995746612549E-002
(PID.TID 0000.0001)         System time:   1.2969970703125000E-003
(PID.TID 0000.0001)     Wall clock time:   8.9392185211181641E-002
(PID.TID 0000.0001)          No. starts:           4
(PID.TID 0000.0001)           No. stops:           4
(PID.TID 0000.0001)   Seconds in section "BLOCKING_EXCHANGES  [FORWARD_STEP]":
(PID.TID 0000.0001)           User time:   8.6009502410888672E-003
(PID.TID 0000.0001)         System time:   3.7007033824920654E-005
(PID.TID 0000.0001)     Wall clock time:   8.6498260498046875E-003
(PID.TID 0000.0001)          No. starts:           4
(PID.TID 0000.0001)           No. stops:           4
(PID.TID 0000.0001)   Seconds in section "MONITOR             [FORWARD_STEP]":
(PID.TID 0000.0001)           User time:   3.2140910625457764E-002
(PID.TID 0000.0001)         System time:   1.6499310731887817E-004
(PID.TID 0000.0001)     Wall clock time:   3.2314777374267578E-002
(PID.TID 0000.0001)          No. starts:           4
(PID.TID 0000.0001)           No. stops:           4
(PID.TID 0000.0001)   Seconds in section "DO_THE_MODEL_IO     [FORWARD_STEP]":
(PID.TID 0000.0001)           User time:   2.4742007255554199E-002
(PID.TID 0000.0001)         System time:   1.6715995967388153E-002
(PID.TID 0000.0001)     Wall clock time:   4.1756153106689453E-002
(PID.TID 0000.0001)          No. starts:           4
(PID.TID 0000.0001)           No. stops:           4
(PID.TID 0000.0001)   Seconds in section "PTRACERS_RESET      [FORWARD_STEP]":
(PID.TID 0000.0001)           User time:   2.6941299438476562E-005
(PID.TID 0000.0001)         System time:   0.0000000000000000
(PID.TID 0000.0001)     Wall clock time:   2.8133392333984375E-005
(PID.TID 0000.0001)          No. starts:           4
(PID.TID 0000.0001)           No. stops:           4
(PID.TID 0000.0001)   Seconds in section "DO_WRITE_PICKUP     [FORWARD_STEP]":
(PID.TID 0000.0001)           User time:   1.1732101440429688E-002
(PID.TID 0000.0001)         System time:   5.0514020025730133E-002
(PID.TID 0000.0001)     Wall clock time:   6.3964366912841797E-002
(PID.TID 0000.0001)          No. starts:           4
(PID.TID 0000.0001)           No. stops:           4
(PID.TID 0000.0001) // ======================================================
(PID.TID 0000.0001) // Tile <-> Tile communication statistics
(PID.TID 0000.0001) // ======================================================
(PID.TID 0000.0001) // o Tile number: 000001
(PID.TID 0000.0001) //         No. X exchanges =              0
(PID.TID 0000.0001) //            Max. X spins =              0
(PID.TID 0000.0001) //            Min. X spins =     1000000000
(PID.TID 0000.0001) //          Total. X spins =              0
(PID.TID 0000.0001) //            Avg. X spins =       0.00E+00
(PID.TID 0000.0001) //         No. Y exchanges =              0
(PID.TID 0000.0001) //            Max. Y spins =              0
(PID.TID 0000.0001) //            Min. Y spins =     1000000000
(PID.TID 0000.0001) //          Total. Y spins =              0
(PID.TID 0000.0001) //            Avg. Y spins =       0.00E+00
(PID.TID 0000.0001) // o Tile number: 000002
(PID.TID 0000.0001) //         No. X exchanges =              0
(PID.TID 0000.0001) //            Max. X spins =              0
(PID.TID 0000.0001) //            Min. X spins =     1000000000
(PID.TID 0000.0001) //          Total. X spins =              0
(PID.TID 0000.0001) //            Avg. X spins =       0.00E+00
(PID.TID 0000.0001) //         No. Y exchanges =              0
(PID.TID 0000.0001) //            Max. Y spins =              0
(PID.TID 0000.0001) //            Min. Y spins =     1000000000
(PID.TID 0000.0001) //          Total. Y spins =              0
(PID.TID 0000.0001) //            Avg. Y spins =       0.00E+00
(PID.TID 0000.0001) // o Tile number: 000003
(PID.TID 0000.0001) //         No. X exchanges =              0
(PID.TID 0000.0001) //            Max. X spins =              0
(PID.TID 0000.0001) //            Min. X spins =     1000000000
(PID.TID 0000.0001) //          Total. X spins =              0
(PID.TID 0000.0001) //            Avg. X spins =       0.00E+00
(PID.TID 0000.0001) //         No. Y exchanges =              0
(PID.TID 0000.0001) //            Max. Y spins =              0
(PID.TID 0000.0001) //            Min. Y spins =     1000000000
(PID.TID 0000.0001) //          Total. Y spins =              0
(PID.TID 0000.0001) //            Avg. Y spins =       0.00E+00
(PID.TID 0000.0001) // o Tile number: 000004
(PID.TID 0000.0001) //         No. X exchanges =              0
(PID.TID 0000.0001) //            Max. X spins =              0
(PID.TID 0000.0001) //            Min. X spins =     1000000000
(PID.TID 0000.0001) //          Total. X spins =              0
(PID.TID 0000.0001) //            Avg. X spins =       0.00E+00
(PID.TID 0000.0001) //         No. Y exchanges =              0
(PID.TID 0000.0001) //            Max. Y spins =              0
(PID.TID 0000.0001) //            Min. Y spins =     1000000000
(PID.TID 0000.0001) //          Total. Y spins =              0
(PID.TID 0000.0001) //            Avg. Y spins =       0.00E+00
(PID.TID 0000.0001) // o Thread number: 000001
(PID.TID 0000.0001) //            No. barriers =           6304
(PID.TID 0000.0001) //      Max. barrier spins =              1
(PID.TID 0000.0001) //      Min. barrier spins =              1
(PID.TID 0000.0001) //     Total barrier spins =           6304
(PID.TID 0000.0001) //      Avg. barrier spins =       1.00E+00
PROGRAM MAIN: Execution ended Normally
