(PID.TID 0000.0001) 
(PID.TID 0000.0001) // ======================================================
(PID.TID 0000.0001) //                      MITgcm UV
(PID.TID 0000.0001) //                      =========
(PID.TID 0000.0001) // ======================================================
(PID.TID 0000.0001) // execution environment starting up...
(PID.TID 0000.0001) 
(PID.TID 0000.0001) // MITgcmUV version:  checkpoint66l
(PID.TID 0000.0001) // Build user:        dmenemen
(PID.TID 0000.0001) // Build host:        triton
(PID.TID 0000.0001) // Build date:        Sun Jan 26 15:36:32 PST 2020
(PID.TID 0000.0001) 
(PID.TID 0000.0001) // =======================================================
(PID.TID 0000.0001) // Execution Environment parameter file "eedata"
(PID.TID 0000.0001) // =======================================================
(PID.TID 0000.0001) ># Example "eedata" file
(PID.TID 0000.0001) ># Lines beginning "#" are comments
(PID.TID 0000.0001) ># nTx - No. threads per process in X
(PID.TID 0000.0001) ># nTy - No. threads per process in Y
(PID.TID 0000.0001) > &EEPARMS
(PID.TID 0000.0001) > nTx=1,
(PID.TID 0000.0001) > nTy=1,
(PID.TID 0000.0001) > /
(PID.TID 0000.0001) ># Note: Some systems use & as the
(PID.TID 0000.0001) ># namelist terminator. Other systems
(PID.TID 0000.0001) ># use a / character (as shown here).
(PID.TID 0000.0001) 
(PID.TID 0000.0001) // =======================================================
(PID.TID 0000.0001) // Computational Grid Specification ( see files "SIZE.h" )
(PID.TID 0000.0001) //                                  ( and "eedata"       )
(PID.TID 0000.0001) // =======================================================
(PID.TID 0000.0001)      nPx =    1 ; /* No. processes in X */
(PID.TID 0000.0001)      nPy =    1 ; /* No. processes in Y */
(PID.TID 0000.0001)      nSx =    2 ; /* No. tiles in X per process */
(PID.TID 0000.0001)      nSy =    2 ; /* No. tiles in Y per process */
(PID.TID 0000.0001)      sNx =   64 ; /* Tile size in X */
(PID.TID 0000.0001)      sNy =   32 ; /* Tile size in Y */
(PID.TID 0000.0001)      OLx =    4 ; /* Tile overlap distance in X */
(PID.TID 0000.0001)      OLy =    4 ; /* Tile overlap distance in Y */
(PID.TID 0000.0001)      nTx =    1 ; /* No. threads in X per process */
(PID.TID 0000.0001)      nTy =    1 ; /* No. threads in Y per process */
(PID.TID 0000.0001)       Nr =   15 ; /* No. levels in the vertical   */
(PID.TID 0000.0001)       Nx =  128 ; /* Total domain size in X ( = nPx*nSx*sNx ) */
(PID.TID 0000.0001)       Ny =   64 ; /* Total domain size in Y ( = nPy*nSy*sNy ) */
(PID.TID 0000.0001)   nTiles =    4 ; /* Total no. tiles per process ( = nSx*nSy ) */
(PID.TID 0000.0001)   nProcs =    1 ; /* Total no. processes ( = nPx*nPy ) */
(PID.TID 0000.0001) nThreads =    1 ; /* Total no. threads per process ( = nTx*nTy ) */
(PID.TID 0000.0001) usingMPI =    F ; /* Flag used to control whether MPI is in use */
(PID.TID 0000.0001)                   /*  note: To execute a program with MPI calls */
(PID.TID 0000.0001)                   /*  it must be launched appropriately e.g     */
(PID.TID 0000.0001)                   /*  "mpirun -np 64 ......"                    */
(PID.TID 0000.0001) useCoupler=    F ;/* Flag used to control communications with   */
(PID.TID 0000.0001)                   /*  other model components, through a coupler */
(PID.TID 0000.0001) debugMode =    F ; /* print debug msg. (sequence of S/R calls)  */
(PID.TID 0000.0001) printMapIncludesZeros=    F ; /* print zeros in Std.Output maps */
(PID.TID 0000.0001) maxLengthPrt1D=   65 /* maxLength of 1D array printed to StdOut */
(PID.TID 0000.0001) 
(PID.TID 0000.0001) // ======================================================
(PID.TID 0000.0001) // Mapping of tiles to threads
(PID.TID 0000.0001) // ======================================================
(PID.TID 0000.0001) // -o- Thread   1, tiles (   1:   2,   1:   2)
(PID.TID 0000.0001) 
(PID.TID 0000.0001) // ======================================================
(PID.TID 0000.0001) // Tile <-> Tile connectvity table
(PID.TID 0000.0001) // ======================================================
(PID.TID 0000.0001) // Tile number: 000001 (process no. = 000000)
(PID.TID 0000.0001) //        WEST: Tile = 000002, Process = 000000, Comm = put
(PID.TID 0000.0001) //                bi = 000002, bj = 000001
(PID.TID 0000.0001) //        EAST: Tile = 000002, Process = 000000, Comm = put
(PID.TID 0000.0001) //                bi = 000002, bj = 000001
(PID.TID 0000.0001) //       SOUTH: Tile = 000003, Process = 000000, Comm = put
(PID.TID 0000.0001) //                bi = 000001, bj = 000002
(PID.TID 0000.0001) //       NORTH: Tile = 000003, Process = 000000, Comm = put
(PID.TID 0000.0001) //                bi = 000001, bj = 000002
(PID.TID 0000.0001) // Tile number: 000002 (process no. = 000000)
(PID.TID 0000.0001) //        WEST: Tile = 000001, Process = 000000, Comm = put
(PID.TID 0000.0001) //                bi = 000001, bj = 000001
(PID.TID 0000.0001) //        EAST: Tile = 000001, Process = 000000, Comm = put
(PID.TID 0000.0001) //                bi = 000001, bj = 000001
(PID.TID 0000.0001) //       SOUTH: Tile = 000004, Process = 000000, Comm = put
(PID.TID 0000.0001) //                bi = 000002, bj = 000002
(PID.TID 0000.0001) //       NORTH: Tile = 000004, Process = 000000, Comm = put
(PID.TID 0000.0001) //                bi = 000002, bj = 000002
(PID.TID 0000.0001) // Tile number: 000003 (process no. = 000000)
(PID.TID 0000.0001) //        WEST: Tile = 000004, Process = 000000, Comm = put
(PID.TID 0000.0001) //                bi = 000002, bj = 000002
(PID.TID 0000.0001) //        EAST: Tile = 000004, Process = 000000, Comm = put
(PID.TID 0000.0001) //                bi = 000002, bj = 000002
(PID.TID 0000.0001) //       SOUTH: Tile = 000001, Process = 000000, Comm = put
(PID.TID 0000.0001) //                bi = 000001, bj = 000001
(PID.TID 0000.0001) //       NORTH: Tile = 000001, Process = 000000, Comm = put
(PID.TID 0000.0001) //                bi = 000001, bj = 000001
(PID.TID 0000.0001) // Tile number: 000004 (process no. = 000000)
(PID.TID 0000.0001) //        WEST: Tile = 000003, Process = 000000, Comm = put
(PID.TID 0000.0001) //                bi = 000001, bj = 000002
(PID.TID 0000.0001) //        EAST: Tile = 000003, Process = 000000, Comm = put
(PID.TID 0000.0001) //                bi = 000001, bj = 000002
(PID.TID 0000.0001) //       SOUTH: Tile = 000002, Process = 000000, Comm = put
(PID.TID 0000.0001) //                bi = 000002, bj = 000001
(PID.TID 0000.0001) //       NORTH: Tile = 000002, Process = 000000, Comm = put
(PID.TID 0000.0001) //                bi = 000002, bj = 000001
(PID.TID 0000.0001) 
(PID.TID 0000.0001)  INI_PARMS: opening model parameter file "data"
(PID.TID 0000.0001)  OPEN_COPY_DATA_FILE: opening file data
(PID.TID 0000.0001) // =======================================================
(PID.TID 0000.0001) // Parameter file "data"
(PID.TID 0000.0001) // =======================================================
(PID.TID 0000.0001) ># ====================
(PID.TID 0000.0001) ># | Model parameters |
(PID.TID 0000.0001) ># ====================
(PID.TID 0000.0001) >#
(PID.TID 0000.0001) ># Continuous equation parameters
(PID.TID 0000.0001) > &PARM01
(PID.TID 0000.0001) > tRef=15*20.,
(PID.TID 0000.0001) > sRef=15*35.,
(PID.TID 0000.0001) > viscA4=0.,
(PID.TID 0000.0001) > viscAh=2.E5,
(PID.TID 0000.0001) > diffKhT=0.E3,
(PID.TID 0000.0001) > diffKhS=0.E3,
(PID.TID 0000.0001) > viscAz=1.E-3,
(PID.TID 0000.0001) > diffKrBL79surf= 3.E-5,
(PID.TID 0000.0001) > diffKrBL79deep= 13.E-5,
(PID.TID 0000.0001) > diffKrBL79Ho  = -2000.,
(PID.TID 0000.0001) > diffKrBL79scl = 150.,
(PID.TID 0000.0001) > gravity=9.81,
(PID.TID 0000.0001) > rhoConst=1035.,
(PID.TID 0000.0001) > rhoConstFresh=1000.,
(PID.TID 0000.0001) > implicitFreeSurface=.TRUE.,
(PID.TID 0000.0001) > eosType='JMD95Z',
(PID.TID 0000.0001) > implicitDiffusion=.TRUE.,
(PID.TID 0000.0001) > implicitViscosity=.TRUE.,
(PID.TID 0000.0001) > ivdc_kappa=100.,
(PID.TID 0000.0001) > useSingleCpuIO=.TRUE.,
(PID.TID 0000.0001) > tempAdvScheme=2,
(PID.TID 0000.0001) > saltAdvScheme=2,
(PID.TID 0000.0001) ># turn on looped cells
(PID.TID 0000.0001) > hFacMin=.1,
(PID.TID 0000.0001) > hFacMindz=50.,
(PID.TID 0000.0001) > useCDscheme=.TRUE.,
(PID.TID 0000.0001) > debugLevel=5,
(PID.TID 0000.0001) > /
(PID.TID 0000.0001) >
(PID.TID 0000.0001) ># Elliptic solver parameters
(PID.TID 0000.0001) > &PARM02
(PID.TID 0000.0001) > cg2dMaxIters=1000,
(PID.TID 0000.0001) > cg2dTargetResidual=1.E-13,
(PID.TID 0000.0001) > /
(PID.TID 0000.0001) >
(PID.TID 0000.0001) ># Time stepping parameters
(PID.TID 0000.0001) > &PARM03
(PID.TID 0000.0001) > nIter0=0,
(PID.TID 0000.0001) > nTimeSteps = 4,
(PID.TID 0000.0001) > deltaTmom  = 900.,
(PID.TID 0000.0001) > tauCD =     321428.,
(PID.TID 0000.0001) > forcing_In_AB=.FALSE.,
(PID.TID 0000.0001) > momDissip_In_AB=.FALSE.,
(PID.TID 0000.0001) > pChkptFreq = 216000.,
(PID.TID 0000.0001) > periodicExternalForcing=.TRUE.,
(PID.TID 0000.0001) > externForcingPeriod=2592000.,
(PID.TID 0000.0001) > externForcingCycle=31104000.,
(PID.TID 0000.0001) > monitorFreq= 1.,
(PID.TID 0000.0001) > /
(PID.TID 0000.0001) >
(PID.TID 0000.0001) ># Gridding parameters
(PID.TID 0000.0001) > &PARM04
(PID.TID 0000.0001) > usingSphericalPolarGrid=.TRUE.,
(PID.TID 0000.0001) > delZ=  50., 70.,  100., 140., 190.,
(PID.TID 0000.0001) >       240., 290., 340., 390., 440.,
(PID.TID 0000.0001) >       490., 540., 590., 640., 690.,
(PID.TID 0000.0001) > ygOrigin=-90.,
(PID.TID 0000.0001) > delX=128*2.8125,
(PID.TID 0000.0001) > delY=64*2.8125,
(PID.TID 0000.0001) > /
(PID.TID 0000.0001) >
(PID.TID 0000.0001) ># Input datasets
(PID.TID 0000.0001) > &PARM05
(PID.TID 0000.0001) > bathyFile       = 'bathy.bin',
(PID.TID 0000.0001) > hydrogThetaFile = 'Theta.0005184000',
(PID.TID 0000.0001) > hydrogSaltFile  = 'Salt.0005184000',
(PID.TID 0000.0001) > uVelInitFile    = 'Uvel.0005184000',
(PID.TID 0000.0001) > vVelInitFile    = 'Vvel.0005184000',
(PID.TID 0000.0001) > pSurfInitFile   = 'Eta.0005184000',
(PID.TID 0000.0001) > /
(PID.TID 0000.0001) 
(PID.TID 0000.0001)  INI_PARMS ; starts to read PARM01
(PID.TID 0000.0001)  INI_PARMS ; read PARM01 : OK
(PID.TID 0000.0001)  INI_PARMS ; starts to read PARM02
(PID.TID 0000.0001)  INI_PARMS ; read PARM02 : OK
(PID.TID 0000.0001)  INI_PARMS ; starts to read PARM03
(PID.TID 0000.0001)  INI_PARMS ; read PARM03 : OK
(PID.TID 0000.0001)  INI_PARMS ; starts to read PARM04
(PID.TID 0000.0001)  INI_PARMS ; read PARM04 : OK
(PID.TID 0000.0001)  INI_PARMS ; starts to read PARM05
(PID.TID 0000.0001)  INI_PARMS ; read PARM05 : OK
(PID.TID 0000.0001)  INI_PARMS: finished reading file "data"
(PID.TID 0000.0001)  PACKAGES_BOOT: opening data.pkg
(PID.TID 0000.0001)  OPEN_COPY_DATA_FILE: opening file data.pkg
(PID.TID 0000.0001) // =======================================================
(PID.TID 0000.0001) // Parameter file "data.pkg"
(PID.TID 0000.0001) // =======================================================
(PID.TID 0000.0001) ># Packages
(PID.TID 0000.0001) > &PACKAGES
(PID.TID 0000.0001) > useEXF        = .TRUE.,
(PID.TID 0000.0001) > useCAL        = .TRUE.,
(PID.TID 0000.0001) > useGMRedi     = .TRUE.,
(PID.TID 0000.0001) > useSeaice     = .TRUE.,
(PID.TID 0000.0001) > useGGL90      = .TRUE.,
(PID.TID 0000.0001) > useSALT_PlUME =.TRUE.,
(PID.TID 0000.0001) > useDiagnostics=.TRUE.,
(PID.TID 0000.0001) > usePTRACERS   = .TRUE.,
(PID.TID 0000.0001) > useGCHEM      = .TRUE.,
(PID.TID 0000.0001) > /
(PID.TID 0000.0001) 
(PID.TID 0000.0001)  PACKAGES_BOOT: finished reading data.pkg
(PID.TID 0000.0001)  PACKAGES_BOOT: On/Off package Summary
 --------  pkgs with a standard "usePKG" On/Off switch in "data.pkg":  --------
 pkg/ggl90                compiled   and   used ( useGGL90                 = T )
 pkg/gmredi               compiled   and   used ( useGMRedi                = T )
 pkg/cal                  compiled   and   used ( useCAL                   = T )
 pkg/exf                  compiled   and   used ( useEXF                   = T )
 pkg/ptracers             compiled   and   used ( usePTRACERS              = T )
 pkg/gchem                compiled   and   used ( useGCHEM                 = T )
 pkg/seaice               compiled   and   used ( useSEAICE                = T )
 pkg/salt_plume           compiled   and   used ( useSALT_PLUME            = T )
 pkg/diagnostics          compiled   and   used ( useDiagnostics           = T )
 -------- pkgs without standard "usePKG" On/Off switch in "data.pkg":  --------
 pkg/generic_advdiff      compiled   and   used ( useGAD                   = T )
 pkg/mom_common           compiled   and   used ( momStepping              = T )
 pkg/mom_fluxform         compiled   and   used ( & not vectorInvariantMom = T )
 pkg/cd_code              compiled   and   used ( useCDscheme              = T )
 pkg/monitor              compiled   and   used ( monitorFreq > 0.         = T )
 pkg/debug                compiled but not used ( debugMode                = F )
 pkg/rw                   compiled   and   used
 pkg/mdsio                compiled   and   used
(PID.TID 0000.0001)  PACKAGES_BOOT: End of package Summary
(PID.TID 0000.0001) 
(PID.TID 0000.0001) CAL_READPARMS: opening data.cal
(PID.TID 0000.0001)  OPEN_COPY_DATA_FILE: opening file data.cal
(PID.TID 0000.0001) // =======================================================
(PID.TID 0000.0001) // Parameter file "data.cal"
(PID.TID 0000.0001) // =======================================================
(PID.TID 0000.0001) >#
(PID.TID 0000.0001) ># *******************
(PID.TID 0000.0001) ># Calendar Parameters
(PID.TID 0000.0001) ># *******************
(PID.TID 0000.0001) > &CAL_NML
(PID.TID 0000.0001) > TheCalendar='gregorian',
(PID.TID 0000.0001) > startDate_1=19920101,
(PID.TID 0000.0001) ># startDate_2=120000,
(PID.TID 0000.0001) > startDate_2=000000,
(PID.TID 0000.0001) > calendarDumps = .TRUE.,
(PID.TID 0000.0001) > /
(PID.TID 0000.0001) 
(PID.TID 0000.0001) CAL_READPARMS: finished reading data.cal
(PID.TID 0000.0001) EXF_READPARMS: opening data.exf
(PID.TID 0000.0001)  OPEN_COPY_DATA_FILE: opening file data.exf
(PID.TID 0000.0001) // =======================================================
(PID.TID 0000.0001) // Parameter file "data.exf"
(PID.TID 0000.0001) // =======================================================
(PID.TID 0000.0001) ># *********************
(PID.TID 0000.0001) ># External Forcing Data
(PID.TID 0000.0001) ># *********************
(PID.TID 0000.0001) >#
(PID.TID 0000.0001) > &EXF_NML_01
(PID.TID 0000.0001) >#
(PID.TID 0000.0001) > useAtmWind        = .TRUE.,
(PID.TID 0000.0001) >#NCEP VALUES:
(PID.TID 0000.0001) ># exf_albedo        = 0.15,
(PID.TID 0000.0001) ># exf_scal_BulkCdn  = 1.015,
(PID.TID 0000.0001) >#
(PID.TID 0000.0001) >#TO COMBINE WITH ALLOW_ZENITH_ANGLE:
(PID.TID 0000.0001) > exf_albedo        = 0.1,
(PID.TID 0000.0001) > useExfZenIncoming = .TRUE.,
(PID.TID 0000.0001) > select_ZenAlbedo  = 1,
(PID.TID 0000.0001) >#
(PID.TID 0000.0001) > ocean_emissivity = 0.97,
(PID.TID 0000.0001) > ice_emissivity = 0.95,
(PID.TID 0000.0001) > snow_emissivity = 0.95,
(PID.TID 0000.0001) >#
(PID.TID 0000.0001) > exf_iprec         = 32,
(PID.TID 0000.0001) > exf_yftype        = 'RL',
(PID.TID 0000.0001) > useExfYearlyFields= .FALSE.,
(PID.TID 0000.0001) > useExfCheckRange  = .FALSE.,
(PID.TID 0000.0001) > /
(PID.TID 0000.0001) >#
(PID.TID 0000.0001) > &EXF_NML_02
(PID.TID 0000.0001) > atempfile         = 'EIG_tmp2m_degC_plus_ECCO_v4r1_ctrl_2000',
(PID.TID 0000.0001) > aqhfile           = 'EIG_spfh2m_plus_ECCO_v4r1_ctrl_2000',
(PID.TID 0000.0001) > precipfile        = 'EIG_rain_plus_ECCO_v4r1_ctrl_2000',
(PID.TID 0000.0001) > uwindfile         = 'EIG_u10m_2000',
(PID.TID 0000.0001) > vwindfile         = 'EIG_v10m_2000',
(PID.TID 0000.0001) > swdownfile        = 'EIG_dsw_plus_ECCO_v4r1_ctrl_2000',
(PID.TID 0000.0001) > lwdownfile        = 'EIG_dlw_plus_ECCO_v4r1_ctrl_2000',
(PID.TID 0000.0001) > runofffile        = 'runoff-2d-Fekete-1deg-mon-V4-SMOOTH.bin',
(PID.TID 0000.0001) > apco2file         = 'apCO2_2000',
(PID.TID 0000.0001) >#
(PID.TID 0000.0001) > atempperiod       = -12.,
(PID.TID 0000.0001) > aqhperiod         = -12.,
(PID.TID 0000.0001) > precipperiod      = -12.,
(PID.TID 0000.0001) > uwindperiod       = -12.,
(PID.TID 0000.0001) > vwindperiod       = -12.,
(PID.TID 0000.0001) > swdownperiod      = -12.,
(PID.TID 0000.0001) > lwdownperiod      = -12.,
(PID.TID 0000.0001) > runoffperiod      = -12,
(PID.TID 0000.0001) > apco2period       = -12.,
(PID.TID 0000.0001) > /
(PID.TID 0000.0001) >#
(PID.TID 0000.0001) > &EXF_NML_03
(PID.TID 0000.0001) >#NOT FOR EIG exf_offset_atemp  = 273.3971,
(PID.TID 0000.0001) > exf_offset_atemp  = 273.15,
(PID.TID 0000.0001) >#NOT FOR NEW RUNOFF FIELD exf_inscal_runoff = 3.1710e-08,
(PID.TID 0000.0001) > exf_inscal_swdown = -1.0,
(PID.TID 0000.0001) > exf_inscal_lwdown = -1.0,
(PID.TID 0000.0001) ># to compensate for sea level rise for nlfs/realFWF
(PID.TID 0000.0001) >#precip_exfremo_intercept = 1.073E-9,
(PID.TID 0000.0001) >#precip_exfremo_slope = -3.340E-18,
(PID.TID 0000.0001) > /
(PID.TID 0000.0001) >#
(PID.TID 0000.0001) > &EXF_NML_04
(PID.TID 0000.0001) >#
(PID.TID 0000.0001) > atemp_lon0      = -178.5,
(PID.TID 0000.0001) > atemp_lon_inc   = 3.0,
(PID.TID 0000.0001) > atemp_lat0      = -88.5,
(PID.TID 0000.0001) > atemp_lat_inc   = 59*3.0,
(PID.TID 0000.0001) > atemp_nlon      = 120,
(PID.TID 0000.0001) > atemp_nlat      = 60,
(PID.TID 0000.0001) >#
(PID.TID 0000.0001) > aqh_lon0        = -178.5,
(PID.TID 0000.0001) > aqh_lon_inc     = 3.0,
(PID.TID 0000.0001) > aqh_lat0        = -88.5,
(PID.TID 0000.0001) > aqh_lat_inc     = 59*3.0,
(PID.TID 0000.0001) > aqh_nlon        = 120,
(PID.TID 0000.0001) > aqh_nlat        = 60,
(PID.TID 0000.0001) >#
(PID.TID 0000.0001) > precip_lon0     = -178.5,
(PID.TID 0000.0001) > precip_lon_inc  = 3.0,
(PID.TID 0000.0001) > precip_lat0     = -88.5,
(PID.TID 0000.0001) > precip_lat_inc  = 59*3.0,
(PID.TID 0000.0001) > precip_nlon     = 120,
(PID.TID 0000.0001) > precip_nlat     = 60,
(PID.TID 0000.0001) >#
(PID.TID 0000.0001) > uwind_lon0      = -178.5,
(PID.TID 0000.0001) > uwind_lon_inc   = 3.0,
(PID.TID 0000.0001) > uwind_lat0      = -88.5,
(PID.TID 0000.0001) > uwind_lat_inc   = 59*3.0,
(PID.TID 0000.0001) > uwind_nlon      = 120,
(PID.TID 0000.0001) > uwind_nlat      = 60,
(PID.TID 0000.0001) >#
(PID.TID 0000.0001) > vwind_lon0      = -178.5,
(PID.TID 0000.0001) > vwind_lon_inc   = 3.0,
(PID.TID 0000.0001) > vwind_lat0      = -88.5,
(PID.TID 0000.0001) > vwind_lat_inc   = 59*3.0,
(PID.TID 0000.0001) > vwind_nlon      = 120,
(PID.TID 0000.0001) > vwind_nlat      = 60,
(PID.TID 0000.0001) >#
(PID.TID 0000.0001) > swdown_lon0     = -178.5,
(PID.TID 0000.0001) > swdown_lon_inc  = 3.0,
(PID.TID 0000.0001) > swdown_lat0     = -88.5,
(PID.TID 0000.0001) > swdown_lat_inc  = 59*3.0,
(PID.TID 0000.0001) > swdown_nlon     = 120,
(PID.TID 0000.0001) > swdown_nlat     = 60,
(PID.TID 0000.0001) >#
(PID.TID 0000.0001) > lwdown_lon0     = -178.5,
(PID.TID 0000.0001) > lwdown_lon_inc  = 3.0,
(PID.TID 0000.0001) > lwdown_lat0     = -88.5,
(PID.TID 0000.0001) > lwdown_lat_inc  = 59*3.0,
(PID.TID 0000.0001) > lwdown_nlon     = 120,
(PID.TID 0000.0001) > lwdown_nlat     = 60,
(PID.TID 0000.0001) >#
(PID.TID 0000.0001) > runoff_lon0     = -178.5,
(PID.TID 0000.0001) > runoff_lon_inc  = 3.0,
(PID.TID 0000.0001) > runoff_lat0     = -88.5,
(PID.TID 0000.0001) > runoff_lat_inc  = 59*3.0,
(PID.TID 0000.0001) > runoff_nlon     = 120,
(PID.TID 0000.0001) > runoff_nlat     = 60,
(PID.TID 0000.0001) >#
(PID.TID 0000.0001) > apco2_lon0      = -178.5,
(PID.TID 0000.0001) > apco2_lon_inc   = 3.0,
(PID.TID 0000.0001) > apco2_lat0      = -88.5,
(PID.TID 0000.0001) > apco2_lat_inc   = 59*3.0,
(PID.TID 0000.0001) > apco2_nlon      = 120,
(PID.TID 0000.0001) > apco2_nlat      = 60,
(PID.TID 0000.0001) > /
(PID.TID 0000.0001) 
(PID.TID 0000.0001) EXF_READPARMS: reading EXF_NML_01
(PID.TID 0000.0001) EXF_READPARMS: reading EXF_NML_02
(PID.TID 0000.0001) EXF_READPARMS: reading EXF_NML_03
(PID.TID 0000.0001) EXF_READPARMS: reading EXF_NML_04
(PID.TID 0000.0001) EXF_READPARMS: finished reading data.exf
(PID.TID 0000.0001)  GGL90_READPARMS: opening data.ggl90
(PID.TID 0000.0001)  OPEN_COPY_DATA_FILE: opening file data.ggl90
(PID.TID 0000.0001) // =======================================================
(PID.TID 0000.0001) // Parameter file "data.ggl90"
(PID.TID 0000.0001) // =======================================================
(PID.TID 0000.0001) ># =====================================================================
(PID.TID 0000.0001) ># | Parameters for Gaspar et al. (1990)'s TKE vertical mixing scheme  |
(PID.TID 0000.0001) ># =====================================================================
(PID.TID 0000.0001) > &GGL90_PARM01
(PID.TID 0000.0001) > GGL90alpha=30.,
(PID.TID 0000.0001) > GGL90TKEmin  = 1.e-7,
(PID.TID 0000.0001) > GGL90TKEbottom = 1.e-6,
(PID.TID 0000.0001) > mxlMaxFlag =2,
(PID.TID 0000.0001) > mxlSurfFlag=.TRUE.,
(PID.TID 0000.0001) > /
(PID.TID 0000.0001) 
(PID.TID 0000.0001)  GGL90_READPARMS ; starts to read GGL90_PARM01
(PID.TID 0000.0001)  GGL90_READPARMS: read GGL90_PARM01 : OK
(PID.TID 0000.0001)  GGL90_READPARMS: finished reading data.ggl90
(PID.TID 0000.0001) // =======================================================
(PID.TID 0000.0001) // GGL90 configuration
(PID.TID 0000.0001) // =======================================================
(PID.TID 0000.0001) GGL90dumpFreq =   /* GGL90 state write out interval ( s ). */
(PID.TID 0000.0001)                 0.000000000000000E+00
(PID.TID 0000.0001)     ;
(PID.TID 0000.0001) GGL90taveFreq =   /* GGL90 averaging interval ( s ). */
(PID.TID 0000.0001)                 0.000000000000000E+00
(PID.TID 0000.0001)     ;
(PID.TID 0000.0001) GGL90mixingMAPS =   /* GGL90 IO flag. */
(PID.TID 0000.0001)                   F
(PID.TID 0000.0001)     ;
(PID.TID 0000.0001) GGL90writeState =   /* GGL90 IO flag. */
(PID.TID 0000.0001)                   F
(PID.TID 0000.0001)     ;
(PID.TID 0000.0001) GGL90ck =   /* GGL90 viscosity parameter. */
(PID.TID 0000.0001)                 1.000000000000000E-01
(PID.TID 0000.0001)     ;
(PID.TID 0000.0001) GGL90ceps =   /* GGL90 dissipation parameter. */
(PID.TID 0000.0001)                 7.000000000000000E-01
(PID.TID 0000.0001)     ;
(PID.TID 0000.0001) GGL90alpha =   /* GGL90 TKE diffusivity parameter. */
(PID.TID 0000.0001)                 3.000000000000000E+01
(PID.TID 0000.0001)     ;
(PID.TID 0000.0001) GGL90m2 =   /* GGL90 wind stress to vertical stress ratio. */
(PID.TID 0000.0001)                 3.750000000000000E+00
(PID.TID 0000.0001)     ;
(PID.TID 0000.0001) GGL90TKEmin =   /* GGL90 minimum kinetic energy ( m^2/s^2 ). */
(PID.TID 0000.0001)                 1.000000000000000E-07
(PID.TID 0000.0001)     ;
(PID.TID 0000.0001) GGL90TKEsurfMin =   /* GGL90 minimum surface kinetic energy ( m^2/s^2 ). */
(PID.TID 0000.0001)                 1.000000000000000E-04
(PID.TID 0000.0001)     ;
(PID.TID 0000.0001) GGL90TKEbottom =   /* GGL90 bottom kinetic energy ( m^2/s^2 ). */
(PID.TID 0000.0001)                 1.000000000000000E-06
(PID.TID 0000.0001)     ;
(PID.TID 0000.0001) GGL90viscMax =   /* GGL90 upper limit for viscosity ( m^2/s ). */
(PID.TID 0000.0001)                 1.000000000000000E+02
(PID.TID 0000.0001)     ;
(PID.TID 0000.0001) GGL90diffMax =   /* GGL90 upper limit for diffusivity ( m^2/s ). */
(PID.TID 0000.0001)                 1.000000000000000E+02
(PID.TID 0000.0001)     ;
(PID.TID 0000.0001) GGL90diffTKEh =   /* GGL90 horizontal diffusivity for TKE ( m^2/s ). */
(PID.TID 0000.0001)                 0.000000000000000E+00
(PID.TID 0000.0001)     ;
(PID.TID 0000.0001) GGL90mixingLengthMin =   /* GGL90 minimum mixing length ( m ). */
(PID.TID 0000.0001)                 1.000000000000000E-08
(PID.TID 0000.0001)     ;
(PID.TID 0000.0001) mxlMaxFlag =   /* Flag for limiting mixing-length method */
(PID.TID 0000.0001)                       2
(PID.TID 0000.0001)     ;
(PID.TID 0000.0001) mxlSurfFlag =   /* GGL90 flag for near surface mixing. */
(PID.TID 0000.0001)                   T
(PID.TID 0000.0001)     ;
(PID.TID 0000.0001) calcMeanVertShear = /* calc Mean of Vert.Shear (vs shear of Mean flow) */
(PID.TID 0000.0001)                   F
(PID.TID 0000.0001)     ;
(PID.TID 0000.0001) GGL90: GGL90TKEFile =
(PID.TID 0000.0001) GGL90writeState =   /* GGL90 Boundary condition flag. */
(PID.TID 0000.0001)                   T
(PID.TID 0000.0001)     ;
(PID.TID 0000.0001) // =======================================================
(PID.TID 0000.0001) // End of GGL90 config. summary
(PID.TID 0000.0001) // =======================================================
(PID.TID 0000.0001) 
(PID.TID 0000.0001)  GM_READPARMS: opening data.gmredi
(PID.TID 0000.0001)  OPEN_COPY_DATA_FILE: opening file data.gmredi
(PID.TID 0000.0001) // =======================================================
(PID.TID 0000.0001) // Parameter file "data.gmredi"
(PID.TID 0000.0001) // =======================================================
(PID.TID 0000.0001) ># from MOM
(PID.TID 0000.0001) ># GM_background_K: 	isopycnal diffusion coefficien
(PID.TID 0000.0001) ># GM_maxSlope:		max slope of isopycnals
(PID.TID 0000.0001) ># GM_Scrit:		transition for scaling diffusion coefficient
(PID.TID 0000.0001) ># GM_Sd:		half width scaling for diffusion coefficient
(PID.TID 0000.0001) ># real background diff:	horizontal diffusion
(PID.TID 0000.0001) >
(PID.TID 0000.0001) ># ifdef GM_VISBECK_VARIABLE_K, include following in GM_PARM01
(PID.TID 0000.0001) ># GM_Visbeck_alpha   = 0.,
(PID.TID 0000.0001) ># GM_Visbeck_length  = 2.e+5,
(PID.TID 0000.0001) ># GM_Visbeck_depth   = 1.e+3,
(PID.TID 0000.0001) ># GM_Visbeck_maxval_K= 2.5e+3,
(PID.TID 0000.0001) >
(PID.TID 0000.0001) > &GM_PARM01
(PID.TID 0000.0001) >  GM_background_K    = 1.e+3,
(PID.TID 0000.0001) >  GM_taper_scheme    = 'gkw91',
(PID.TID 0000.0001) >  GM_maxSlope        = 1.e-2,
(PID.TID 0000.0001) >  GM_Kmin_horiz      = 100.,
(PID.TID 0000.0001) >  GM_Scrit           = 4.e-3,
(PID.TID 0000.0001) >  GM_Sd              = 1.e-3,
(PID.TID 0000.0001) > /
(PID.TID 0000.0001) >
(PID.TID 0000.0001) >
(PID.TID 0000.0001) 
(PID.TID 0000.0001)  GM_READPARMS: finished reading data.gmredi
(PID.TID 0000.0001)  PTRACERS_READPARMS: opening data.ptracers
(PID.TID 0000.0001)  OPEN_COPY_DATA_FILE: opening file data.ptracers
(PID.TID 0000.0001) // =======================================================
(PID.TID 0000.0001) // Parameter file "data.ptracers"
(PID.TID 0000.0001) // =======================================================
(PID.TID 0000.0001) > &PTRACERS_PARM01
(PID.TID 0000.0001) > PTRACERS_numInUse=39,
(PID.TID 0000.0001) > PTRACERS_advScheme(1)=39*33,
(PID.TID 0000.0001) > PTRACERS_diffKh(1)=39*0.E3,
(PID.TID 0000.0001) > PTRACERS_diffKr(1)=39*1.E-5,
(PID.TID 0000.0001) > PTRACERS_useGMRedi(1)=39*.TRUE. ,
(PID.TID 0000.0001) ># tracer 1 - phosphate
(PID.TID 0000.0001) > PTRACERS_names(1)='PO4',
(PID.TID 0000.0001) > PTRACERS_units(1)='mmol P/m^3',
(PID.TID 0000.0001) > PTRACERS_initialFile(1)='ptracers_optimized_01.0000000001',
(PID.TID 0000.0001) ># tracer 2 - nitrate
(PID.TID 0000.0001) > PTRACERS_names(2)='NO3',
(PID.TID 0000.0001) > PTRACERS_units(2)='mmol N/m^3',
(PID.TID 0000.0001) > PTRACERS_initialFile(2)='ptracers_optimized_02.0000000001',
(PID.TID 0000.0001) ># tracer 3 - dissolved iron
(PID.TID 0000.0001) > PTRACERS_names(3)='FeT',
(PID.TID 0000.0001) > PTRACERS_units(3)='mmol Fe/m^3',
(PID.TID 0000.0001) > PTRACERS_initialFile(3)='ptracers_optimized_03.0000000001',
(PID.TID 0000.0001) ># tracer 4 - silicic acid
(PID.TID 0000.0001) > PTRACERS_names(4)='SiO2',
(PID.TID 0000.0001) > PTRACERS_units(4)='mmol Si/m^3',
(PID.TID 0000.0001) > PTRACERS_initialFile(4)='ptracers_optimized_04.0000000001',
(PID.TID 0000.0001) ># tracer 5 - DOP
(PID.TID 0000.0001) > PTRACERS_names(5)='DOP',
(PID.TID 0000.0001) > PTRACERS_units(5)='mmol P/m^3',
(PID.TID 0000.0001) > PTRACERS_initialFile(5)='ptracers_optimized_05.0000000001',
(PID.TID 0000.0001) ># tracer 6 - DON
(PID.TID 0000.0001) > PTRACERS_names(6)='DON',
(PID.TID 0000.0001) > PTRACERS_units(6)='mmol N/m^3',
(PID.TID 0000.0001) > PTRACERS_initialFile(6)='ptracers_optimized_06.0000000001',
(PID.TID 0000.0001) ># tracer 7 - DOFe
(PID.TID 0000.0001) > PTRACERS_names(7)='DOFe',
(PID.TID 0000.0001) > PTRACERS_units(7)='mmol Fe/m^3',
(PID.TID 0000.0001) > PTRACERS_initialFile(7)='ptracers_optimized_07.0000000001',
(PID.TID 0000.0001) ># tracer 8 - ZOO1P
(PID.TID 0000.0001) > PTRACERS_names(8)='ZOO1P',
(PID.TID 0000.0001) > PTRACERS_units(8)='mmol P/m^3',
(PID.TID 0000.0001) > PTRACERS_initialFile(8)='ptracers_optimized_08.0000000001',
(PID.TID 0000.0001) ># tracer 9 - ZOO1N
(PID.TID 0000.0001) > PTRACERS_names(9)='ZOO1N',
(PID.TID 0000.0001) > PTRACERS_units(9)='mmol N/m^3'
(PID.TID 0000.0001) > PTRACERS_initialFile(9)='ptracers_optimized_09.0000000001',
(PID.TID 0000.0001) ># tracer 10 - ZOO1Fe
(PID.TID 0000.0001) > PTRACERS_names(10)='ZOO1Fe',
(PID.TID 0000.0001) > PTRACERS_units(10)='mmol Fe/m^3'
(PID.TID 0000.0001) > PTRACERS_initialFile(10)='ptracers_optimized_10.0000000001',
(PID.TID 0000.0001) ># tracer 11 - ZOO1Si
(PID.TID 0000.0001) > PTRACERS_names(11)='ZOO1Si',
(PID.TID 0000.0001) > PTRACERS_units(11)='mmol Si/m^3'
(PID.TID 0000.0001) > PTRACERS_initialFile(11)='ptracers_optimized_11.0000000001',
(PID.TID 0000.0001) ># tracer 12 - ZOO2P
(PID.TID 0000.0001) > PTRACERS_names(12)='ZOO2P',
(PID.TID 0000.0001) > PTRACERS_units(12)='mmol P/m^3',
(PID.TID 0000.0001) > PTRACERS_initialFile(12)='ptracers_optimized_12.0000000001',
(PID.TID 0000.0001) ># tracer 13 - ZOO2N
(PID.TID 0000.0001) > PTRACERS_names(13)='ZOO2N',
(PID.TID 0000.0001) > PTRACERS_units(13)='mmol N/m^3'
(PID.TID 0000.0001) > PTRACERS_initialFile(13)='ptracers_optimized_13.0000000001',
(PID.TID 0000.0001) ># tracer 14 - ZOO2Fe
(PID.TID 0000.0001) > PTRACERS_names(14)='ZOO2Fe',
(PID.TID 0000.0001) > PTRACERS_units(14)='mmol Fe/m^3'
(PID.TID 0000.0001) > PTRACERS_initialFile(14)='ptracers_optimized_14.0000000001',
(PID.TID 0000.0001) ># tracer 15 - ZOO2Si
(PID.TID 0000.0001) > PTRACERS_names(15)='ZOO2Si',
(PID.TID 0000.0001) > PTRACERS_units(15)='mmol Si/m^3'
(PID.TID 0000.0001) > PTRACERS_initialFile(15)='ptracers_optimized_15.0000000001',
(PID.TID 0000.0001) ># tracer 16 - POP
(PID.TID 0000.0001) > PTRACERS_names(16)='POP',
(PID.TID 0000.0001) > PTRACERS_units(16)='mmol P/m^3',
(PID.TID 0000.0001) > PTRACERS_initialFile(16)='ptracers_optimized_16.0000000001',
(PID.TID 0000.0001) ># tracer 17 - PON
(PID.TID 0000.0001) > PTRACERS_names(17)='PON',
(PID.TID 0000.0001) > PTRACERS_units(17)='mmol N/m^3',
(PID.TID 0000.0001) > PTRACERS_initialFile(17)='ptracers_optimized_17.0000000001',
(PID.TID 0000.0001) ># tracer 18 - POFe
(PID.TID 0000.0001) > PTRACERS_names(18)='POFe',
(PID.TID 0000.0001) > PTRACERS_units(18)='mmol Fe/m^3'
(PID.TID 0000.0001) > PTRACERS_initialFile(18)='ptracers_optimized_18.0000000001',
(PID.TID 0000.0001) ># tracer 19 - POSi
(PID.TID 0000.0001) > PTRACERS_names(19)='POSi',
(PID.TID 0000.0001) > PTRACERS_units(19)='mmol Si/m^3'
(PID.TID 0000.0001) > PTRACERS_initialFile(19)='ptracers_optimized_19.0000000001',
(PID.TID 0000.0001) ># tracer 20 - NH4
(PID.TID 0000.0001) > PTRACERS_names(20)='NH4',
(PID.TID 0000.0001) > PTRACERS_units(20)='mmol N/m^3'
(PID.TID 0000.0001) > PTRACERS_initialFile(20)='ptracers_optimized_20.0000000001',
(PID.TID 0000.0001) ># tracer 21 - NO2
(PID.TID 0000.0001) > PTRACERS_names(21)='NO2',
(PID.TID 0000.0001) > PTRACERS_units(21)='mmol N/m^3'
(PID.TID 0000.0001) > PTRACERS_initialFile(21)='ptracers_optimized_21.0000000001',
(PID.TID 0000.0001) ># tracer 22 - PHYT01
(PID.TID 0000.0001) > PTRACERS_names(22)='Phy01',
(PID.TID 0000.0001) > PTRACERS_units(22)='mmol P/m^3'
(PID.TID 0000.0001) > PTRACERS_initialFile(22)='ptracers_optimized_22.0000000001',
(PID.TID 0000.0001) ># tracer 23 - PHYT02
(PID.TID 0000.0001) > PTRACERS_names(23)='Phy02',
(PID.TID 0000.0001) > PTRACERS_units(23)='mmol P/m^3'
(PID.TID 0000.0001) > PTRACERS_initialFile(23)='ptracers_optimized_23.0000000001',
(PID.TID 0000.0001) ># tracer 24 - PHYT03
(PID.TID 0000.0001) > PTRACERS_names(24)='Phy03',
(PID.TID 0000.0001) > PTRACERS_units(24)='mmol P/m^3'
(PID.TID 0000.0001) > PTRACERS_initialFile(24)='ptracers_optimized_24.0000000001',
(PID.TID 0000.0001) ># tracer 25 - PHYT04
(PID.TID 0000.0001) > PTRACERS_names(25)='Phy04',
(PID.TID 0000.0001) > PTRACERS_units(25)='mmol P/m^3'
(PID.TID 0000.0001) > PTRACERS_initialFile(25)='ptracers_optimized_25.0000000001',
(PID.TID 0000.0001) ># tracer 26 - PHYT05
(PID.TID 0000.0001) > PTRACERS_names(26)='Phy05',
(PID.TID 0000.0001) > PTRACERS_units(26)='mmol P/m^3'
(PID.TID 0000.0001) > PTRACERS_initialFile(26)='ptracers_optimized_26.0000000001',
(PID.TID 0000.0001) ># tracer 27 - CHL01
(PID.TID 0000.0001) > PTRACERS_names(27)='Chl01',
(PID.TID 0000.0001) > PTRACERS_units(27)='mg Chla/m^3'
(PID.TID 0000.0001) > PTRACERS_initialFile(27)='ptracers_optimized_27.0000000001',
(PID.TID 0000.0001) ># tracer 28 - CHL02
(PID.TID 0000.0001) > PTRACERS_names(28)='Chl02',
(PID.TID 0000.0001) > PTRACERS_units(28)='mg Chla/m^3'
(PID.TID 0000.0001) > PTRACERS_initialFile(28)='ptracers_optimized_28.0000000001',
(PID.TID 0000.0001) ># tracer 29 - CHL03
(PID.TID 0000.0001) > PTRACERS_names(29)='Chl03',
(PID.TID 0000.0001) > PTRACERS_units(29)='mg Chla/m^3'
(PID.TID 0000.0001) > PTRACERS_initialFile(29)='ptracers_optimized_29.0000000001',
(PID.TID 0000.0001) ># tracer 30 - CHL04
(PID.TID 0000.0001) > PTRACERS_names(30)='Chl04',
(PID.TID 0000.0001) > PTRACERS_units(30)='mg Chla/m^3'
(PID.TID 0000.0001) > PTRACERS_initialFile(30)='ptracers_optimized_30.0000000001',
(PID.TID 0000.0001) ># tracer 31 - CHL05
(PID.TID 0000.0001) > PTRACERS_names(31)='Chl05',
(PID.TID 0000.0001) > PTRACERS_units(31)='mg Chla/m^3'
(PID.TID 0000.0001) > PTRACERS_initialFile(31)='ptracers_optimized_31.0000000001',
(PID.TID 0000.0001) ># tracer 32 - DIC
(PID.TID 0000.0001) > PTRACERS_names(32)='DIC',
(PID.TID 0000.0001) > PTRACERS_units(32)='mmol C/m^3'
(PID.TID 0000.0001) > PTRACERS_EvPrRn(32)= 0.
(PID.TID 0000.0001) > PTRACERS_initialFile(32)='ptracers_optimized_32.0000000001',
(PID.TID 0000.0001) ># tracer 33 - DOC
(PID.TID 0000.0001) > PTRACERS_names(33)='DOC',
(PID.TID 0000.0001) > PTRACERS_units(33)='mmol C/m^3'
(PID.TID 0000.0001) > PTRACERS_initialFile(33)='ptracers_optimized_33.0000000001',
(PID.TID 0000.0001) ># tracer 34 - POC
(PID.TID 0000.0001) > PTRACERS_names(34)='POC',
(PID.TID 0000.0001) > PTRACERS_units(34)='mmol C/m^3'
(PID.TID 0000.0001) > PTRACERS_initialFile(34)='ptracers_optimized_34.0000000001',
(PID.TID 0000.0001) ># tracer 35 - PIC
(PID.TID 0000.0001) > PTRACERS_names(35)='PIC',
(PID.TID 0000.0001) > PTRACERS_units(35)='mmol C/m^3'
(PID.TID 0000.0001) > PTRACERS_initialFile(35)='ptracers_optimized_35.0000000001',
(PID.TID 0000.0001) ># tracer 36 - ALK
(PID.TID 0000.0001) > PTRACERS_names(36)='ALK',
(PID.TID 0000.0001) > PTRACERS_units(36)='mmol eq/m^3'
(PID.TID 0000.0001) > PTRACERS_EvPrRn(36)= 0.
(PID.TID 0000.0001) > PTRACERS_initialFile(36)='ptracers_optimized_36.0000000001',
(PID.TID 0000.0001) ># tracer 37 - O2
(PID.TID 0000.0001) > PTRACERS_names(37)='O2',
(PID.TID 0000.0001) > PTRACERS_units(37)='mmol O/m^3'
(PID.TID 0000.0001) > PTRACERS_initialFile(37)='ptracers_optimized_37.0000000001',
(PID.TID 0000.0001) ># tracer 38 - ZOOC1
(PID.TID 0000.0001) > PTRACERS_names(38)='ZOOC1',
(PID.TID 0000.0001) > PTRACERS_units(38)='mmol C/m^3'
(PID.TID 0000.0001) > PTRACERS_initialFile(38)='ptracers_optimized_38.0000000001',
(PID.TID 0000.0001) ># tracer 39 - ZOOC2
(PID.TID 0000.0001) > PTRACERS_names(39)='ZOOC2',
(PID.TID 0000.0001) > PTRACERS_units(39)='mmol C/m^3'
(PID.TID 0000.0001) > PTRACERS_initialFile(39)='ptracers_optimized_39.0000000001',
(PID.TID 0000.0001) > /
(PID.TID 0000.0001) 
(PID.TID 0000.0001)  PTRACERS_READPARMS: finished reading data.ptracers
(PID.TID 0000.0001)  GCHEM_READPARMS: opening data.gchem
(PID.TID 0000.0001)  OPEN_COPY_DATA_FILE: opening file data.gchem
(PID.TID 0000.0001) // =======================================================
(PID.TID 0000.0001) // Parameter file "data.gchem"
(PID.TID 0000.0001) // =======================================================
(PID.TID 0000.0001) > &GCHEM_PARM01
(PID.TID 0000.0001) > useDARWIN=.TRUE.,
(PID.TID 0000.0001) >  nsubtime=1,
(PID.TID 0000.0001) > /
(PID.TID 0000.0001) 
(PID.TID 0000.0001)  GCHEM_READPARMS: finished reading data.gchem
(PID.TID 0000.0001)  DARWIN_READPARMS: opening data.darwin
(PID.TID 0000.0001)  OPEN_COPY_DATA_FILE: opening file data.darwin
(PID.TID 0000.0001) // =======================================================
(PID.TID 0000.0001) // Parameter file "data.darwin"
(PID.TID 0000.0001) // =======================================================
(PID.TID 0000.0001) > &DARWIN_FORCING
(PID.TID 0000.0001) > darwin_IronFile='3deg_Mahowald_2009_soluble_iron_dust.bin',
(PID.TID 0000.0001) > darwin_forcingPeriod=2629800.,
(PID.TID 0000.0001) > darwin_forcingCycle=31557600.,
(PID.TID 0000.0001) > darwin_seed=56,
(PID.TID 0000.0001) > /
(PID.TID 0000.0001) >
(PID.TID 0000.0001) > &DIC_FORCING
(PID.TID 0000.0001) >#DIC_windFile  = 'input/tren_speed_mth-2d.bin',
(PID.TID 0000.0001) >#DIC_atmospFile= ' ',
(PID.TID 0000.0001) > dic_int1=2,
(PID.TID 0000.0001) > dic_pCO2=370.D-6,
(PID.TID 0000.0001) > /
(PID.TID 0000.0001) >
(PID.TID 0000.0001) 
(PID.TID 0000.0001)  DARWIN_READPARMS: finished reading data.darwin
(PID.TID 0000.0001) // ===================================
(PID.TID 0000.0001) // darwin parameters
(PID.TID 0000.0001) // ===================================
(PID.TID 0000.0001) darwin_seed = /* seed for random number generator */
(PID.TID 0000.0001)                      56
(PID.TID 0000.0001)     ;
(PID.TID 0000.0001)  -----------------------------------
(PID.TID 0000.0001)  ===================================
(PID.TID 0000.0001) 
(PID.TID 0000.0001)  SEAICE_READPARMS: opening data.seaice
(PID.TID 0000.0001)  OPEN_COPY_DATA_FILE: opening file data.seaice
(PID.TID 0000.0001) // =======================================================
(PID.TID 0000.0001) // Parameter file "data.seaice"
(PID.TID 0000.0001) // =======================================================
(PID.TID 0000.0001) ># SEAICE parameters
(PID.TID 0000.0001) > &SEAICE_PARM01
(PID.TID 0000.0001) >      SEAICEuseTILT=.FALSE.,
(PID.TID 0000.0001) >      SEAICEpresH0=2.,
(PID.TID 0000.0001) >      SEAICEpresPow0=1,
(PID.TID 0000.0001) >      SEAICEpresPow1=3,
(PID.TID 0000.0001) >      SEAICE_multDim=1,
(PID.TID 0000.0001) >      SEAICErestoreUnderIce=.TRUE.,
(PID.TID 0000.0001) >      SEAICE_area_max=0.95,
(PID.TID 0000.0001) >#for backward compatibility (before 2011 june 19, those were the defaults)
(PID.TID 0000.0001) >#     SEAICE_area_floor=0.15,
(PID.TID 0000.0001) >#     SEAICE_area_reg=0.15,
(PID.TID 0000.0001) >      SEAICE_salt0=4.,
(PID.TID 0000.0001) ># for long time step:
(PID.TID 0000.0001) >#      SEAICE_deltaTevp   = 720.,
(PID.TID 0000.0001) ># for regular time step:
(PID.TID 0000.0001) >      SEAICE_deltaTevp   = 60.,
(PID.TID 0000.0001) ># for lsr:
(PID.TID 0000.0001) >#      LSR_ERROR          = 2.e-4,
(PID.TID 0000.0001) >      SEAICEuseDYNAMICS  = .TRUE.,
(PID.TID 0000.0001) ># BAD OPTION -- DO NOT USE -- SEAICE_maskRHS     = .TRUE.,
(PID.TID 0000.0001) >      MIN_ATEMP          = -40.,
(PID.TID 0000.0001) >      MIN_TICE           = -40.,
(PID.TID 0000.0001) >      SEAICEadvScheme    = 30,
(PID.TID 0000.0001) >      SEAICEuseFluxForm = .TRUE.,
(PID.TID 0000.0001) >      SEAICEadvSnow      = .TRUE.,
(PID.TID 0000.0001) >#      SEAICEadvSalt      = .TRUE.,
(PID.TID 0000.0001) >      SEAICEdiffKhHeff   = 400.,
(PID.TID 0000.0001) >      SEAICEdiffKhArea   = 400.,
(PID.TID 0000.0001) >      SEAICEdiffKhSnow   = 400.,
(PID.TID 0000.0001) >#      SEAICEdiffKhSalt   = 400.,
(PID.TID 0000.0001) >      SEAICEuseFlooding  = .TRUE.,
(PID.TID 0000.0001) >      SEAICE_mcPheePiston= 3.858024691358025E-05,
(PID.TID 0000.0001) >      SEAICE_frazilFrac  = 1.,
(PID.TID 0000.0001) >      SEAICE_mcPheeTaper = 0.,
(PID.TID 0000.0001) >      SEAICE_areaLossFormula=2,
(PID.TID 0000.0001) >      SEAICEheatConsFix  = .TRUE.,
(PID.TID 0000.0001) >      SEAICE_tempFrz0    = -1.96,
(PID.TID 0000.0001) >      SEAICE_dTempFrz_dS = 0.,
(PID.TID 0000.0001) >      SEAICEuseMetricTerms = .TRUE.,
(PID.TID 0000.0001) >      SEAICE_no_slip     = .FALSE.,
(PID.TID 0000.0001) >      SEAICE_clipVelocities = .TRUE.,
(PID.TID 0000.0001) >#take 33% out of (1-albedo)
(PID.TID 0000.0001) >      SEAICE_dryIceAlb   = 0.84,
(PID.TID 0000.0001) >      SEAICE_wetIceAlb   = 0.78,
(PID.TID 0000.0001) >      SEAICE_drySnowAlb  = 0.90,
(PID.TID 0000.0001) >      SEAICE_wetSnowAlb  = 0.8 ,
(PID.TID 0000.0001) >#default albedos
(PID.TID 0000.0001) >      SEAICE_dryIceAlb_south   = 0.75
(PID.TID 0000.0001) >      SEAICE_wetIceAlb_south   = 0.66
(PID.TID 0000.0001) >      SEAICE_drySnowAlb_south  = 0.84
(PID.TID 0000.0001) >      SEAICE_wetSnowAlb_south  = 0.7
(PID.TID 0000.0001) >#initial conditions
(PID.TID 0000.0001) >      AreaFile = 'Area.0005184000',
(PID.TID 0000.0001) >      HeffFile = 'Heff.0005184000',
(PID.TID 0000.0001) > /
(PID.TID 0000.0001) >#
(PID.TID 0000.0001) > &SEAICE_PARM02
(PID.TID 0000.0001) > /
(PID.TID 0000.0001) >
(PID.TID 0000.0001) 
(PID.TID 0000.0001)  SEAICE_READPARMS: finished reading data.seaice
(PID.TID 0000.0001) SALT_PLUME_READPARMS: opening data.salt_plume
(PID.TID 0000.0001)  OPEN_COPY_DATA_FILE: opening file data.salt_plume
(PID.TID 0000.0001) // =======================================================
(PID.TID 0000.0001) // Parameter file "data.salt_plume"
(PID.TID 0000.0001) // =======================================================
(PID.TID 0000.0001) > &SALT_PLUME_PARM01
(PID.TID 0000.0001) > SPsalFRAC= 0.5D0,
(PID.TID 0000.0001) > /
(PID.TID 0000.0001) 
(PID.TID 0000.0001) SALT_PLUME_READPARMS: finished reading data.salt_plume
(PID.TID 0000.0001)  DIAGNOSTICS_READPARMS: opening data.diagnostics
(PID.TID 0000.0001)  OPEN_COPY_DATA_FILE: opening file data.diagnostics
(PID.TID 0000.0001) // =======================================================
(PID.TID 0000.0001) // Parameter file "data.diagnostics"
(PID.TID 0000.0001) // =======================================================
(PID.TID 0000.0001) ># Diagnostic Package Choices
(PID.TID 0000.0001) >#-----------------
(PID.TID 0000.0001) ># for each output-stream:
(PID.TID 0000.0001) >#  filename(n) : prefix of the output file name (only 8.c long) for outp.stream n
(PID.TID 0000.0001) >#  frequency(n):< 0 : write snap-shot output every multiple of |frequency| (iter)
(PID.TID 0000.0001) >#               > 0 : write time-average output every multiple of frequency (iter)
(PID.TID 0000.0001) >#  levels(:,n) : list of levels to write to file (Notes: declared as REAL)
(PID.TID 0000.0001) >#                 when this entry is missing, select all common levels of this list
(PID.TID 0000.0001) >#  fields(:,n) : list of diagnostics fields (8.c) (see "available_diagnostics" file
(PID.TID 0000.0001) >#                 for the list of all available diag. in this particular config)
(PID.TID 0000.0001) >#--------------------------------------------------------------------
(PID.TID 0000.0001) >#
(PID.TID 0000.0001) ># 6-hourly 2-D fields:
(PID.TID 0000.0001) ># ====================
(PID.TID 0000.0001) >#
(PID.TID 0000.0001) ># ETAN     Perturbation of Surface (pressure, height) (Pa,m)
(PID.TID 0000.0001) ># PHIBOT   ocean bottom pressure / top. atmos geo-Potential
(PID.TID 0000.0001) ># oceTAUX  zonal surface wind stress, >0 increases uVel (N/m^2)
(PID.TID 0000.0001) ># oceTAUY  meridional surf. wind stress, >0 increases vVel (N/m^2)
(PID.TID 0000.0001) ># surForcT model surface forcing for Temperature, >0 increases theta (W/m^2)
(PID.TID 0000.0001) ># oceQsw   net Short-Wave radiation (+=down), >0 increases theta (W/m^2)
(PID.TID 0000.0001) ># surForcS model surface forcing for Salinity, >0 increases salinity (g/m^2/s)
(PID.TID 0000.0001) ># KPPhbl   KPP boundary layer depth, bulk Ri criterion
(PID.TID 0000.0001) ># KPPmld   Mixed layer depth, dT=.8degC density criterion
(PID.TID 0000.0001) ># SSS      Sea Surface Salinity (g/kg)
(PID.TID 0000.0001) ># SST      Sea Surface Temperature (degC,K)
(PID.TID 0000.0001) ># UVEL_k2  Zonal Component of Velocity at level 2 (m/s)
(PID.TID 0000.0001) ># VVEL_k2  Meridional Component of Velocity at level 2 (m/s)
(PID.TID 0000.0001) >#
(PID.TID 0000.0001) ># daily 2-D fields:
(PID.TID 0000.0001) ># =================
(PID.TID 0000.0001) >#
(PID.TID 0000.0001) ># SIarea   SEAICE fractional ice-covered area [0 to 1]
(PID.TID 0000.0001) ># SIheff   SEAICE effective ice thickness (m)
(PID.TID 0000.0001) ># SIuice   SEAICE zonal ice velocity, >0 from West to East (m/s)
(PID.TID 0000.0001) ># SIvice   SEAICE merid. ice velocity, >0 from South to North (m/s)
(PID.TID 0000.0001) ># SIhsnow  SEAICE snow thickness (m)
(PID.TID 0000.0001) ># SIhsalt  SEAICE effective salinity (g/m^2)
(PID.TID 0000.0001) >#
(PID.TID 0000.0001) ># monthly 2-D fields:
(PID.TID 0000.0001) ># ===================
(PID.TID 0000.0001) >#
(PID.TID 0000.0001) ># ETANSQ   Square of Perturbation of Sfc (Pa2,m2)
(PID.TID 0000.0001) ># EXFhs    Sensible heat flux into ocean, >0 increases theta (W/m^2)
(PID.TID 0000.0001) ># EXFhl    Latent heat flux into ocean, >0 increases theta (W/m^2)
(PID.TID 0000.0001) ># EXFlwnet Net upward longwave radiation, >0 decreases theta (W/m^2)
(PID.TID 0000.0001) ># oceFWflx net surface Fresh-Water flux into ocean, >0 decreases salinity (kg/m^2/s)
(PID.TID 0000.0001) ># oceSflux net surface Salt flux into the ocean, >0 increases salinity (g/m^2/s)
(PID.TID 0000.0001) ># oceQnet  net surface heat flux into the ocean, >0 increases theta (W/m^2)
(PID.TID 0000.0001) ># SRELAX   surface salinity relaxation, >0 increases salt (g/m^2/s)
(PID.TID 0000.0001) ># TFLUX    total heat flux (match heat-content variations), >0 increases theta (W/m^2)
(PID.TID 0000.0001) ># SFLUX    total salt flux (match salt-content variations), >0 increases salt (g/m^2/s)
(PID.TID 0000.0001) >#
(PID.TID 0000.0001) ># monthly 3-D fields:
(PID.TID 0000.0001) ># ===================
(PID.TID 0000.0001) >#
(PID.TID 0000.0001) ># SALTanom Salt anomaly (=SALT-35; g/kg)
(PID.TID 0000.0001) ># THETA    Potential Temperature (degC,K)
(PID.TID 0000.0001) ># UVELMASS Zonal Mass-Weighted Comp of Velocity (m/s)
(PID.TID 0000.0001) ># VVELMASS Meridional Mass-Weighted Comp of Velocity (m/s)
(PID.TID 0000.0001) ># WVELMASS Vertical Mass-Weighted Comp of Velocity (m/s)
(PID.TID 0000.0001) >#
(PID.TID 0000.0001) ># SALTSQan Square of Salt anomaly (=(SALT-35)^2 (g^2/kg^2)
(PID.TID 0000.0001) ># THETASQ  Square of Potential Temperature (K2)
(PID.TID 0000.0001) ># UVELSQ   Square of Zonal Comp of Velocity (m2/s2)
(PID.TID 0000.0001) ># VVELSQ   Square of Meridional Comp of Velocity (m2/s2)
(PID.TID 0000.0001) ># WVELSQ   Square of Vertical Comp of Velocity (m2/s2)
(PID.TID 0000.0001) ># UV_VEL_Z Meridional Transport of Zonal Momentum (m2/s2)
(PID.TID 0000.0001) ># WU_VEL   Vertical Transport of Zonal Momentum (m^2/s^2)
(PID.TID 0000.0001) ># WV_VEL   Vertical Transport of Meridional Momentum (m^2/s^2)
(PID.TID 0000.0001) >#
(PID.TID 0000.0001) ># UTHMASS  Zonal Mass-Weight Transp of Pot Temp (K.m/s)
(PID.TID 0000.0001) ># VTHMASS  Meridional Mass-Weight Transp of Pot Temp (K.m/s)
(PID.TID 0000.0001) ># WTHMASS  Vertical Mass-Weight Transp of Pot Temp (K.m/s)
(PID.TID 0000.0001) ># USLTMASS Zonal Mass-Weight Transp of Salt (g/kg.m/s)
(PID.TID 0000.0001) ># VSLTMASS Meridional Mass-Weight Transp of Salt (g/kg.m/s)
(PID.TID 0000.0001) ># WSLTMASS Vertical Mass-Weight Transp of Salt (g/kg.m/s)
(PID.TID 0000.0001) >#
(PID.TID 0000.0001) ># RHOAnoma Density Anomaly (=Rho-rhoConst; kg/m^3)
(PID.TID 0000.0001) ># DRHODR   Stratification: d.Sigma/dr (kg/m3/r_unit; kg/m^4)
(PID.TID 0000.0001) ># RHOANOSQ Square of Density Anomaly (=(Rho-rhoConst)^2; kg^2/m^6)
(PID.TID 0000.0001) ># URHOMASS Zonal Transport of Density (kg/m^2/s)
(PID.TID 0000.0001) ># VRHOMASS Meridional Transport of Density (kg/m^2/s)
(PID.TID 0000.0001) ># WRHOMASS Vertical Transport of Potential Density (kg/m^2/s)
(PID.TID 0000.0001) >#
(PID.TID 0000.0001) > &diagnostics_list
(PID.TID 0000.0001) >  frequency(1)  = -2635200.,
(PID.TID 0000.0001) >   timePhase(1) = 0.,
(PID.TID 0000.0001) >   fields(1,1)  = 'ETAN    ',
(PID.TID 0000.0001) >   filename(1)  = 'ETAN',
(PID.TID 0000.0001) >  frequency(2) = 2635200.,
(PID.TID 0000.0001) >   fields(1,2) = 'SALTanom',
(PID.TID 0000.0001) >   filename(2) = 'SALTanom',
(PID.TID 0000.0001) >  frequency(3) = 2635200.,
(PID.TID 0000.0001) >   fields(1,3) = 'THETA   ',
(PID.TID 0000.0001) >   filename(3) = 'THETA',
(PID.TID 0000.0001) >  frequency(4) = 2635200.,
(PID.TID 0000.0001) >   fields(1,4) = 'TRAC32  ',
(PID.TID 0000.0001) >   filename(4) = 'DIC',
(PID.TID 0000.0001) >  frequency(5) = 86400.,
(PID.TID 0000.0001) >   fields(1,5) = 'DICTFLX ',
(PID.TID 0000.0001) >   filename(5) = 'DICTFLX',
(PID.TID 0000.0001) >  frequency(6) = 86400.,
(PID.TID 0000.0001) >   fields(1,6) = 'DICOFLX ',
(PID.TID 0000.0001) >   filename(6) = 'DICOFLX',
(PID.TID 0000.0001) >  frequency(7) = 86400.,
(PID.TID 0000.0001) >   fields(1,7) = 'DICCFLX ',
(PID.TID 0000.0001) >   filename(7) = 'DICCFLX',
(PID.TID 0000.0001) >  frequency(8) = 86400.,
(PID.TID 0000.0001) >   fields(1,8) = 'DICPCO2 ',
(PID.TID 0000.0001) >   filename(8) = 'DICPCO2',
(PID.TID 0000.0001) >  frequency(9) = 86400.,
(PID.TID 0000.0001) >   fields(1,9) = 'DICPHAV ',
(PID.TID 0000.0001) >   filename(9) = 'DICPHAV',
(PID.TID 0000.0001) >  frequency(10) = 2635200.,
(PID.TID 0000.0001) >   fields(1,10) = 'TRAC01  ',
(PID.TID 0000.0001) >   filename(10) = 'PO4',
(PID.TID 0000.0001) >  frequency(11) = 2635200.,
(PID.TID 0000.0001) >   fields(1,11) = 'TRAC02  ',
(PID.TID 0000.0001) >   filename(11) = 'NO3',
(PID.TID 0000.0001) >  frequency(12) = 2635200.,
(PID.TID 0000.0001) >   fields(1,12) = 'TRAC03  ',
(PID.TID 0000.0001) >   filename(12) = 'FeT',
(PID.TID 0000.0001) >  frequency(13) = 2635200.,
(PID.TID 0000.0001) >   fields(1,13) = 'TRAC04  ',
(PID.TID 0000.0001) >   filename(13) = 'SiO2',
(PID.TID 0000.0001) >  frequency(14) = 2635200.,
(PID.TID 0000.0001) >   fields(1,14) = 'TRAC05  ',
(PID.TID 0000.0001) >   filename(14) = 'DOP',
(PID.TID 0000.0001) >  frequency(15) = 2635200.,
(PID.TID 0000.0001) >   fields(1,15) = 'TRAC06  ',
(PID.TID 0000.0001) >   filename(15) = 'DON',
(PID.TID 0000.0001) >  frequency(16) = 2635200.,
(PID.TID 0000.0001) >   fields(1,16) = 'TRAC07  ',
(PID.TID 0000.0001) >   filename(16) = 'DOFe',
(PID.TID 0000.0001) >  frequency(17) = 2635200.,
(PID.TID 0000.0001) >   fields(1,17) = 'TRAC08  ',
(PID.TID 0000.0001) >   filename(17) = 'ZOO1P',
(PID.TID 0000.0001) >  frequency(18) = 2635200.,
(PID.TID 0000.0001) >   fields(1,18) = 'TRAC09  ',
(PID.TID 0000.0001) >   filename(18) = 'ZOO1N',
(PID.TID 0000.0001) >  frequency(19) = 2635200.,
(PID.TID 0000.0001) >   fields(1,19) = 'TRAC10  ',
(PID.TID 0000.0001) >   filename(19) = 'ZOO1Fe',
(PID.TID 0000.0001) >  frequency(20) = 2635200.,
(PID.TID 0000.0001) >   fields(1,20) = 'TRAC11  ',
(PID.TID 0000.0001) >   filename(20) = 'ZOO1Si',
(PID.TID 0000.0001) >  frequency(21) = 2635200.,
(PID.TID 0000.0001) >   fields(1,21) = 'TRAC12  ',
(PID.TID 0000.0001) >   filename(21) = 'ZOO2P',
(PID.TID 0000.0001) >  frequency(22) = 2635200.,
(PID.TID 0000.0001) >   fields(1,22) = 'TRAC13  ',
(PID.TID 0000.0001) >   filename(22) = 'ZOO2N',
(PID.TID 0000.0001) >  frequency(23) = 2635200.,
(PID.TID 0000.0001) >   fields(1,23) = 'TRAC14  ',
(PID.TID 0000.0001) >   filename(23) = 'ZOO2Fe',
(PID.TID 0000.0001) >  frequency(24) = 2635200.,
(PID.TID 0000.0001) >   fields(1,24) = 'TRAC15  ',
(PID.TID 0000.0001) >   filename(24) = 'ZOO2Si',
(PID.TID 0000.0001) >  frequency(25) = 2635200.,
(PID.TID 0000.0001) >   fields(1,25) = 'TRAC16  ',
(PID.TID 0000.0001) >   filename(25) = 'POP',
(PID.TID 0000.0001) >  frequency(26) = 2635200.,
(PID.TID 0000.0001) >   fields(1,26) = 'TRAC17  ',
(PID.TID 0000.0001) >   filename(26) = 'PON',
(PID.TID 0000.0001) >  frequency(27) = 2635200.,
(PID.TID 0000.0001) >   fields(1,27) = 'TRAC18  ',
(PID.TID 0000.0001) >   filename(27) = 'POFe',
(PID.TID 0000.0001) >  frequency(28) = 2635200.,
(PID.TID 0000.0001) >   fields(1,28) = 'TRAC19  ',
(PID.TID 0000.0001) >   filename(28) = 'POSi',
(PID.TID 0000.0001) >  frequency(29) = 2635200.,
(PID.TID 0000.0001) >   fields(1,29) = 'TRAC20  ',
(PID.TID 0000.0001) >   filename(29) = 'NH4',
(PID.TID 0000.0001) >  frequency(30) = 2635200.,
(PID.TID 0000.0001) >   fields(1,30) = 'TRAC21  ',
(PID.TID 0000.0001) >   filename(30) = 'NO2',
(PID.TID 0000.0001) >  frequency(31) = 2635200.,
(PID.TID 0000.0001) >   fields(1,31) = 'TRAC22  ',
(PID.TID 0000.0001) >   filename(31) = 'Phy01',
(PID.TID 0000.0001) >  frequency(32) = 2635200.,
(PID.TID 0000.0001) >   fields(1,32) = 'TRAC23  ',
(PID.TID 0000.0001) >   filename(32) = 'Phy02',
(PID.TID 0000.0001) >  frequency(33) = 2635200.,
(PID.TID 0000.0001) >   fields(1,33) = 'TRAC24  ',
(PID.TID 0000.0001) >   filename(33) = 'Phy03',
(PID.TID 0000.0001) >  frequency(34) = 2635200.,
(PID.TID 0000.0001) >   fields(1,34) = 'TRAC25  ',
(PID.TID 0000.0001) >   filename(34) = 'Phy04',
(PID.TID 0000.0001) >  frequency(35) = 2635200.,
(PID.TID 0000.0001) >   fields(1,35) = 'TRAC26  ',
(PID.TID 0000.0001) >   filename(35) = 'Phy05',
(PID.TID 0000.0001) >  frequency(36) = 2635200.,
(PID.TID 0000.0001) >   fields(1,36) = 'TRAC33  ',
(PID.TID 0000.0001) >   filename(36) = 'DOC',
(PID.TID 0000.0001) >  frequency(37) = 2635200.,
(PID.TID 0000.0001) >   fields(1,37) = 'TRAC34  ',
(PID.TID 0000.0001) >   filename(37) = 'POC',
(PID.TID 0000.0001) >  frequency(38) = 2635200.,
(PID.TID 0000.0001) >   fields(1,38) = 'TRAC35  ',
(PID.TID 0000.0001) >   filename(38) = 'PIC',
(PID.TID 0000.0001) >  frequency(39) = 2635200.,
(PID.TID 0000.0001) >   fields(1,39) = 'TRAC36  ',
(PID.TID 0000.0001) >   filename(39) = 'ALK',
(PID.TID 0000.0001) >  frequency(40) = 2635200.,
(PID.TID 0000.0001) >   fields(1,40) = 'TRAC37  ',
(PID.TID 0000.0001) >   filename(40) = 'O2',
(PID.TID 0000.0001) >  frequency(41) = 2635200.,
(PID.TID 0000.0001) >   fields(1,41) = 'TRAC38  ',
(PID.TID 0000.0001) >   filename(41) = 'ZOOC1',
(PID.TID 0000.0001) >  frequency(42) = 2635200.,
(PID.TID 0000.0001) >   fields(1,42) = 'TRAC39  ',
(PID.TID 0000.0001) >   filename(42) = 'ZOOC2',
(PID.TID 0000.0001) >  frequency(43) = 2635200.,
(PID.TID 0000.0001) >   fields(1,43) = 'TRAC27  ',
(PID.TID 0000.0001) >   filename(43) = 'CHL1',
(PID.TID 0000.0001) >  frequency(44) = 2635200.,
(PID.TID 0000.0001) >   fields(1,44) = 'TRAC28  ',
(PID.TID 0000.0001) >   filename(44) = 'CHL2',
(PID.TID 0000.0001) >  frequency(45) = 2635200.,
(PID.TID 0000.0001) >   fields(1,45) = 'TRAC29  ',
(PID.TID 0000.0001) >   filename(45) = 'CHL3',
(PID.TID 0000.0001) >  frequency(46) = 2635200.,
(PID.TID 0000.0001) >   fields(1,46) = 'TRAC30  ',
(PID.TID 0000.0001) >   filename(46) = 'CHL4',
(PID.TID 0000.0001) >  frequency(47) = 2635200.,
(PID.TID 0000.0001) >   fields(1,47) = 'TRAC31  ',
(PID.TID 0000.0001) >   filename(47) = 'CHL5',
(PID.TID 0000.0001) >  frequency(48) = 86400.,
(PID.TID 0000.0001) >   fields(1,48) = 'EXFwspee ',
(PID.TID 0000.0001) >   filename(48) = 'EXFwspee',
(PID.TID 0000.0001) >  frequency(49)  = 2635200.,
(PID.TID 0000.0001) >   fields(1,49)  = 'PAR    ',
(PID.TID 0000.0001) >   filename(49)  = 'PAR',
(PID.TID 0000.0001) >  frequency(50)  = 2635200.,
(PID.TID 0000.0001) >   fields(1,50)  = 'PP',
(PID.TID 0000.0001) >   filename(50)  = 'PP',
(PID.TID 0000.0001) >  frequency(51) = 2635200.,
(PID.TID 0000.0001) >   fields(1,51) = 'SIarea ',
(PID.TID 0000.0001) >   filename(51) = 'SIarea_month',
(PID.TID 0000.0001) >  frequency(52) = 2635200.,
(PID.TID 0000.0001) >   fields(1,52) = 'SIheff ',
(PID.TID 0000.0001) >   filename(52) = 'SIheff_month',
(PID.TID 0000.0001) >  frequency(53) = 2635200.,
(PID.TID 0000.0001) >   fields(1,53) = 'EXFapco2 ',
(PID.TID 0000.0001) >   filename(53) = 'EXFapco2month',
(PID.TID 0000.0001) >  frequency(54) = -2535200.,
(PID.TID 0000.0001) >   fields(1,54) = 'EXFapco2 ',
(PID.TID 0000.0001) >   timePhase(54) = 0.,
(PID.TID 0000.0001) >   filename(54) = 'EXFapco2snap',
(PID.TID 0000.0001) >
(PID.TID 0000.0001) >  frequency(55) = 10800.,
(PID.TID 0000.0001) >   fields(1,55) = 'DICCFLX ',
(PID.TID 0000.0001) >   filename(55) = 'DICCFLX3hrly',
(PID.TID 0000.0001) >  frequency(56) = 2635200.,
(PID.TID 0000.0001) >   fields(1,56) = 'DICFGCO2',
(PID.TID 0000.0001) >   filename(56) = 'DICFGCO2',
(PID.TID 0000.0001) >  frequency(57) = 2635200.,
(PID.TID 0000.0001) >   fields(1,57) = 'UE_VEL_C',
(PID.TID 0000.0001) >   filename(57) = 'UE_VEL_C',
(PID.TID 0000.0001) >  frequency(58) = 2635200.,
(PID.TID 0000.0001) >   fields(1,58) = 'VN_VEL_C',
(PID.TID 0000.0001) >   filename(58) = 'VN_VEL_C',
(PID.TID 0000.0001) >  frequency(59) = 2635200.,
(PID.TID 0000.0001) >   fields(1,59) = 'WVEL     ',
(PID.TID 0000.0001) >   filename(59) = 'WVEL',
(PID.TID 0000.0001) >  frequency(60) = 2635200.,
(PID.TID 0000.0001) >   fields(1,60) = 'DICCFLX  ',
(PID.TID 0000.0001) >   filename(60) = 'DICCFLXmonth',
(PID.TID 0000.0001) >  frequency(61) = 2635200.,
(PID.TID 0000.0001) >   fields(1,61) = 'DICPCO2  ',
(PID.TID 0000.0001) >   filename(61) = 'DICPCO2month',
(PID.TID 0000.0001) >  frequency(62) = 2635200.,
(PID.TID 0000.0001) >   fields(1,62) = 'DICOFLX ',
(PID.TID 0000.0001) >   filename(62) = 'DICOFLX_month',
(PID.TID 0000.0001) > frequency(63) = 2635200.,
(PID.TID 0000.0001) >   fields(1,63) = 'oceQsw  ',
(PID.TID 0000.0001) >   filename(63) = 'oceQswMonth',
(PID.TID 0000.0001) > frequency(64) = 2635200.,
(PID.TID 0000.0001) >   fields(1,64) = 'oceQnet ',
(PID.TID 0000.0001) >   filename(64) = 'oceQnetMonth',
(PID.TID 0000.0001) > frequency(65) = 2635200.,
(PID.TID 0000.0001) >   fields(1,65) = 'EXFwspee ',
(PID.TID 0000.0001) >   filename(65) = 'EXFwspeeMonth',
(PID.TID 0000.0001) >
(PID.TID 0000.0001) >  filename(66) = 'surfDiag',
(PID.TID 0000.0001) >   frequency(66) = 2635200.,
(PID.TID 0000.0001) >   levels(1,66) = 1.,
(PID.TID 0000.0001) >   fields(1,66) = 'TFLUX   ','SFLUX   ','MXLDEPTH','oceFWflx ','oceQsw  ',
(PID.TID 0000.0001) >
(PID.TID 0000.0001) >  filename(67) = 'velMassDiag',
(PID.TID 0000.0001) >   frequency(67) = 2635200.,
(PID.TID 0000.0001) >   fields(1,67) = 'UVELMASS ','VVELMASS ','WVELMASS ',
(PID.TID 0000.0001) >
(PID.TID 0000.0001) >  filename(68) = 'dic_surfDiag',
(PID.TID 0000.0001) >   frequency(68) = 2635200.,
(PID.TID 0000.0001) >   levels(1,68) = 1.,
(PID.TID 0000.0001) >#   timePhase(68) = 0.,
(PID.TID 0000.0001) >   fields(1,68) = 'DICCFLX ','DICTFLX ',
(PID.TID 0000.0001) >
(PID.TID 0000.0001) >  filename(69) = 'theta_flxDiag',
(PID.TID 0000.0001) >   frequency(69) = 2635200.,
(PID.TID 0000.0001) >   fields(1,69) = 'THETA   ','TOTTTEND',
(PID.TID 0000.0001) >                  'ADVx_TH ','ADVy_TH ','ADVr_TH ',
(PID.TID 0000.0001) >                  'DFxE_TH ','DFyE_TH ','DFrE_TH ','DFrI_TH ',
(PID.TID 0000.0001) >
(PID.TID 0000.0001) >  filename(70) = 'salt_flxDiag',
(PID.TID 0000.0001) >   frequency(70) = 2635200.,
(PID.TID 0000.0001) >   fields(1,70) = 'SALT    ','TOTSTEND',
(PID.TID 0000.0001) >                  'ADVx_SLT','ADVy_SLT','ADVr_SLT',
(PID.TID 0000.0001) >                  'DFxE_SLT','DFyE_SLT','DFrE_SLT','DFrI_SLT','oceSPtnd',
(PID.TID 0000.0001) >
(PID.TID 0000.0001) >  filename(71) = 'dic_flxDiag',
(PID.TID 0000.0001) >   frequency(71) = 2635200.,
(PID.TID 0000.0001) >   fields(1,71) = 'TRAC32  ',
(PID.TID 0000.0001) >                  'ADVxTr32','ADVyTr32','ADVrTr32',
(PID.TID 0000.0001) >                  'DFxETr32','DFyETr32','DFrETr32','DFrITr32',
(PID.TID 0000.0001) >
(PID.TID 0000.0001) >  filename(72) = 'alk_flxDiag',
(PID.TID 0000.0001) >   frequency(72) = 2635200.,
(PID.TID 0000.0001) >   fields(1,72) = 'TRAC36  ',
(PID.TID 0000.0001) >                  'ADVxTr36','ADVyTr36','ADVrTr36',
(PID.TID 0000.0001) >                  'DFxETr36','DFyETr36','DFrETr36','DFrITr36',
(PID.TID 0000.0001) >
(PID.TID 0000.0001) >  filename(73) = 'po4_flxDiag',
(PID.TID 0000.0001) >   frequency(73) = 2635200.,
(PID.TID 0000.0001) >   fields(1,73) = 'TRAC01  ',
(PID.TID 0000.0001) >                  'ADVxTr01','ADVyTr01','ADVrTr01',
(PID.TID 0000.0001) >                  'DFxETr01','DFyETr01','DFrETr01','DFrITr01',
(PID.TID 0000.0001) >
(PID.TID 0000.0001) >  filename(74) = 'snapDiag',
(PID.TID 0000.0001) >   frequency(74) = -2635200.,
(PID.TID 0000.0001) >   timePhase(74) = 0.,
(PID.TID 0000.0001) >   fields(1,74) = 'THETA   ','SALT    ','TRAC32  ','TRAC36  ','TRAC01  ',
(PID.TID 0000.0001) > /
(PID.TID 0000.0001) >
(PID.TID 0000.0001) ># Parameter for Diagnostics of per level statistics:
(PID.TID 0000.0001) >#-----------------
(PID.TID 0000.0001) ># for each output-stream:
(PID.TID 0000.0001) >#  stat_fname(n) : prefix of the output file name (only 8.c long) for
(PID.TID 0000.0001) >#outp.stream n
(PID.TID 0000.0001) >#  stat_freq(n):< 0 : write snap-shot output every |stat_freq| seconds
(PID.TID 0000.0001) >#               > 0 : write time-average output every stat_freq seconds
(PID.TID 0000.0001) >#  stat_phase(n)    : write at time = stat_phase + multiple of |stat_freq|
(PID.TID 0000.0001) >#  stat_region(:,n) : list of "regions" (default: 1 region only=global)
(PID.TID 0000.0001) >#  stat_fields(:,n) : list of diagnostics fields (8.c) (see
(PID.TID 0000.0001) >#"available_diagnostics.log"
(PID.TID 0000.0001) >#                 file for the list of all available diag. in this particular
(PID.TID 0000.0001) >#config)
(PID.TID 0000.0001) >#-----------------
(PID.TID 0000.0001) > &DIAG_STATIS_PARMS
(PID.TID 0000.0001) >#- an example just to check the agreement with MONITOR output:
(PID.TID 0000.0001) >#stat_fields(1,1)= 'ETAN    ','UVEL    ','VVEL    ','WVEL    ', 'THETA   ',
(PID.TID 0000.0001) >#   stat_fname(1)= 'dynStDiag',
(PID.TID 0000.0001) >#    stat_freq(1)= -864000.,
(PID.TID 0000.0001) >#   stat_phase(1)= 0.,
(PID.TID 0000.0001) > /
(PID.TID 0000.0001) 
(PID.TID 0000.0001) S/R DIAGNOSTICS_READPARMS, read namelist "diagnostics_list": start
(PID.TID 0000.0001) S/R DIAGNOSTICS_READPARMS, read namelist "diagnostics_list": OK
(PID.TID 0000.0001) S/R DIAGNOSTICS_READPARMS, read namelist "DIAG_STATIS_PARMS": start
(PID.TID 0000.0001) S/R DIAGNOSTICS_READPARMS, read namelist "DIAG_STATIS_PARMS": OK
(PID.TID 0000.0001)  DIAGNOSTICS_READPARMS: global parameter summary:
(PID.TID 0000.0001)  dumpAtLast = /* always write time-ave diags at the end */
(PID.TID 0000.0001)                   F
(PID.TID 0000.0001)     ;
(PID.TID 0000.0001)  diag_mnc =   /* write NetCDF output files */
(PID.TID 0000.0001)                   F
(PID.TID 0000.0001)     ;
(PID.TID 0000.0001)  useMissingValue = /* put MissingValue where mask = 0 */
(PID.TID 0000.0001)                   F
(PID.TID 0000.0001)     ;
(PID.TID 0000.0001)  diagCG_maxIters = /* max number of iters in diag_cg2d */
(PID.TID 0000.0001)                    1000
(PID.TID 0000.0001)     ;
(PID.TID 0000.0001)  diagCG_resTarget = /* residual target for diag_cg2d */
(PID.TID 0000.0001)                 1.000000000000000E-13
(PID.TID 0000.0001)     ;
(PID.TID 0000.0001)  diagCG_pcOffDFac = /* preconditioner off-diagonal factor */
(PID.TID 0000.0001)                 9.611687812379854E-01
(PID.TID 0000.0001)     ;
(PID.TID 0000.0001) -----------------------------------------------------
(PID.TID 0000.0001)  DIAGNOSTICS_READPARMS: active diagnostics summary:
(PID.TID 0000.0001) -----------------------------------------------------
(PID.TID 0000.0001) Creating Output Stream: ETAN
(PID.TID 0000.0001) Output Frequency:   -2635200.000000 ; Phase:           0.000000
(PID.TID 0000.0001)  Averaging Freq.:          0.000000 , Phase:           0.000000 , Cycle:   1
(PID.TID 0000.0001)  missing value: -9.990000000000E+02
(PID.TID 0000.0001)  Levels:    will be set later
(PID.TID 0000.0001)  Fields:    ETAN
(PID.TID 0000.0001) Creating Output Stream: SALTanom
(PID.TID 0000.0001) Output Frequency:    2635200.000000 ; Phase:           0.000000
(PID.TID 0000.0001)  Averaging Freq.:    2635200.000000 , Phase:           0.000000 , Cycle:   1
(PID.TID 0000.0001)  missing value: -9.990000000000E+02
(PID.TID 0000.0001)  Levels:    will be set later
(PID.TID 0000.0001)  Fields:    SALTanom
(PID.TID 0000.0001) Creating Output Stream: THETA
(PID.TID 0000.0001) Output Frequency:    2635200.000000 ; Phase:           0.000000
(PID.TID 0000.0001)  Averaging Freq.:    2635200.000000 , Phase:           0.000000 , Cycle:   1
(PID.TID 0000.0001)  missing value: -9.990000000000E+02
(PID.TID 0000.0001)  Levels:    will be set later
(PID.TID 0000.0001)  Fields:    THETA
(PID.TID 0000.0001) Creating Output Stream: DIC
(PID.TID 0000.0001) Output Frequency:    2635200.000000 ; Phase:           0.000000
(PID.TID 0000.0001)  Averaging Freq.:    2635200.000000 , Phase:           0.000000 , Cycle:   1
(PID.TID 0000.0001)  missing value: -9.990000000000E+02
(PID.TID 0000.0001)  Levels:    will be set later
(PID.TID 0000.0001)  Fields:    TRAC32
(PID.TID 0000.0001) Creating Output Stream: DICTFLX
(PID.TID 0000.0001) Output Frequency:      86400.000000 ; Phase:           0.000000
(PID.TID 0000.0001)  Averaging Freq.:      86400.000000 , Phase:           0.000000 , Cycle:   1
(PID.TID 0000.0001)  missing value: -9.990000000000E+02
(PID.TID 0000.0001)  Levels:    will be set later
(PID.TID 0000.0001)  Fields:    DICTFLX
(PID.TID 0000.0001) Creating Output Stream: DICOFLX
(PID.TID 0000.0001) Output Frequency:      86400.000000 ; Phase:           0.000000
(PID.TID 0000.0001)  Averaging Freq.:      86400.000000 , Phase:           0.000000 , Cycle:   1
(PID.TID 0000.0001)  missing value: -9.990000000000E+02
(PID.TID 0000.0001)  Levels:    will be set later
(PID.TID 0000.0001)  Fields:    DICOFLX
(PID.TID 0000.0001) Creating Output Stream: DICCFLX
(PID.TID 0000.0001) Output Frequency:      86400.000000 ; Phase:           0.000000
(PID.TID 0000.0001)  Averaging Freq.:      86400.000000 , Phase:           0.000000 , Cycle:   1
(PID.TID 0000.0001)  missing value: -9.990000000000E+02
(PID.TID 0000.0001)  Levels:    will be set later
(PID.TID 0000.0001)  Fields:    DICCFLX
(PID.TID 0000.0001) Creating Output Stream: DICPCO2
(PID.TID 0000.0001) Output Frequency:      86400.000000 ; Phase:           0.000000
(PID.TID 0000.0001)  Averaging Freq.:      86400.000000 , Phase:           0.000000 , Cycle:   1
(PID.TID 0000.0001)  missing value: -9.990000000000E+02
(PID.TID 0000.0001)  Levels:    will be set later
(PID.TID 0000.0001)  Fields:    DICPCO2
(PID.TID 0000.0001) Creating Output Stream: DICPHAV
(PID.TID 0000.0001) Output Frequency:      86400.000000 ; Phase:           0.000000
(PID.TID 0000.0001)  Averaging Freq.:      86400.000000 , Phase:           0.000000 , Cycle:   1
(PID.TID 0000.0001)  missing value: -9.990000000000E+02
(PID.TID 0000.0001)  Levels:    will be set later
(PID.TID 0000.0001)  Fields:    DICPHAV
(PID.TID 0000.0001) Creating Output Stream: PO4
(PID.TID 0000.0001) Output Frequency:    2635200.000000 ; Phase:           0.000000
(PID.TID 0000.0001)  Averaging Freq.:    2635200.000000 , Phase:           0.000000 , Cycle:   1
(PID.TID 0000.0001)  missing value: -9.990000000000E+02
(PID.TID 0000.0001)  Levels:    will be set later
(PID.TID 0000.0001)  Fields:    TRAC01
(PID.TID 0000.0001) Creating Output Stream: NO3
(PID.TID 0000.0001) Output Frequency:    2635200.000000 ; Phase:           0.000000
(PID.TID 0000.0001)  Averaging Freq.:    2635200.000000 , Phase:           0.000000 , Cycle:   1
(PID.TID 0000.0001)  missing value: -9.990000000000E+02
(PID.TID 0000.0001)  Levels:    will be set later
(PID.TID 0000.0001)  Fields:    TRAC02
(PID.TID 0000.0001) Creating Output Stream: FeT
(PID.TID 0000.0001) Output Frequency:    2635200.000000 ; Phase:           0.000000
(PID.TID 0000.0001)  Averaging Freq.:    2635200.000000 , Phase:           0.000000 , Cycle:   1
(PID.TID 0000.0001)  missing value: -9.990000000000E+02
(PID.TID 0000.0001)  Levels:    will be set later
(PID.TID 0000.0001)  Fields:    TRAC03
(PID.TID 0000.0001) Creating Output Stream: SiO2
(PID.TID 0000.0001) Output Frequency:    2635200.000000 ; Phase:           0.000000
(PID.TID 0000.0001)  Averaging Freq.:    2635200.000000 , Phase:           0.000000 , Cycle:   1
(PID.TID 0000.0001)  missing value: -9.990000000000E+02
(PID.TID 0000.0001)  Levels:    will be set later
(PID.TID 0000.0001)  Fields:    TRAC04
(PID.TID 0000.0001) Creating Output Stream: DOP
(PID.TID 0000.0001) Output Frequency:    2635200.000000 ; Phase:           0.000000
(PID.TID 0000.0001)  Averaging Freq.:    2635200.000000 , Phase:           0.000000 , Cycle:   1
(PID.TID 0000.0001)  missing value: -9.990000000000E+02
(PID.TID 0000.0001)  Levels:    will be set later
(PID.TID 0000.0001)  Fields:    TRAC05
(PID.TID 0000.0001) Creating Output Stream: DON
(PID.TID 0000.0001) Output Frequency:    2635200.000000 ; Phase:           0.000000
(PID.TID 0000.0001)  Averaging Freq.:    2635200.000000 , Phase:           0.000000 , Cycle:   1
(PID.TID 0000.0001)  missing value: -9.990000000000E+02
(PID.TID 0000.0001)  Levels:    will be set later
(PID.TID 0000.0001)  Fields:    TRAC06
(PID.TID 0000.0001) Creating Output Stream: DOFe
(PID.TID 0000.0001) Output Frequency:    2635200.000000 ; Phase:           0.000000
(PID.TID 0000.0001)  Averaging Freq.:    2635200.000000 , Phase:           0.000000 , Cycle:   1
(PID.TID 0000.0001)  missing value: -9.990000000000E+02
(PID.TID 0000.0001)  Levels:    will be set later
(PID.TID 0000.0001)  Fields:    TRAC07
(PID.TID 0000.0001) Creating Output Stream: ZOO1P
(PID.TID 0000.0001) Output Frequency:    2635200.000000 ; Phase:           0.000000
(PID.TID 0000.0001)  Averaging Freq.:    2635200.000000 , Phase:           0.000000 , Cycle:   1
(PID.TID 0000.0001)  missing value: -9.990000000000E+02
(PID.TID 0000.0001)  Levels:    will be set later
(PID.TID 0000.0001)  Fields:    TRAC08
(PID.TID 0000.0001) Creating Output Stream: ZOO1N
(PID.TID 0000.0001) Output Frequency:    2635200.000000 ; Phase:           0.000000
(PID.TID 0000.0001)  Averaging Freq.:    2635200.000000 , Phase:           0.000000 , Cycle:   1
(PID.TID 0000.0001)  missing value: -9.990000000000E+02
(PID.TID 0000.0001)  Levels:    will be set later
(PID.TID 0000.0001)  Fields:    TRAC09
(PID.TID 0000.0001) Creating Output Stream: ZOO1Fe
(PID.TID 0000.0001) Output Frequency:    2635200.000000 ; Phase:           0.000000
(PID.TID 0000.0001)  Averaging Freq.:    2635200.000000 , Phase:           0.000000 , Cycle:   1
(PID.TID 0000.0001)  missing value: -9.990000000000E+02
(PID.TID 0000.0001)  Levels:    will be set later
(PID.TID 0000.0001)  Fields:    TRAC10
(PID.TID 0000.0001) Creating Output Stream: ZOO1Si
(PID.TID 0000.0001) Output Frequency:    2635200.000000 ; Phase:           0.000000
(PID.TID 0000.0001)  Averaging Freq.:    2635200.000000 , Phase:           0.000000 , Cycle:   1
(PID.TID 0000.0001)  missing value: -9.990000000000E+02
(PID.TID 0000.0001)  Levels:    will be set later
(PID.TID 0000.0001)  Fields:    TRAC11
(PID.TID 0000.0001) Creating Output Stream: ZOO2P
(PID.TID 0000.0001) Output Frequency:    2635200.000000 ; Phase:           0.000000
(PID.TID 0000.0001)  Averaging Freq.:    2635200.000000 , Phase:           0.000000 , Cycle:   1
(PID.TID 0000.0001)  missing value: -9.990000000000E+02
(PID.TID 0000.0001)  Levels:    will be set later
(PID.TID 0000.0001)  Fields:    TRAC12
(PID.TID 0000.0001) Creating Output Stream: ZOO2N
(PID.TID 0000.0001) Output Frequency:    2635200.000000 ; Phase:           0.000000
(PID.TID 0000.0001)  Averaging Freq.:    2635200.000000 , Phase:           0.000000 , Cycle:   1
(PID.TID 0000.0001)  missing value: -9.990000000000E+02
(PID.TID 0000.0001)  Levels:    will be set later
(PID.TID 0000.0001)  Fields:    TRAC13
(PID.TID 0000.0001) Creating Output Stream: ZOO2Fe
(PID.TID 0000.0001) Output Frequency:    2635200.000000 ; Phase:           0.000000
(PID.TID 0000.0001)  Averaging Freq.:    2635200.000000 , Phase:           0.000000 , Cycle:   1
(PID.TID 0000.0001)  missing value: -9.990000000000E+02
(PID.TID 0000.0001)  Levels:    will be set later
(PID.TID 0000.0001)  Fields:    TRAC14
(PID.TID 0000.0001) Creating Output Stream: ZOO2Si
(PID.TID 0000.0001) Output Frequency:    2635200.000000 ; Phase:           0.000000
(PID.TID 0000.0001)  Averaging Freq.:    2635200.000000 , Phase:           0.000000 , Cycle:   1
(PID.TID 0000.0001)  missing value: -9.990000000000E+02
(PID.TID 0000.0001)  Levels:    will be set later
(PID.TID 0000.0001)  Fields:    TRAC15
(PID.TID 0000.0001) Creating Output Stream: POP
(PID.TID 0000.0001) Output Frequency:    2635200.000000 ; Phase:           0.000000
(PID.TID 0000.0001)  Averaging Freq.:    2635200.000000 , Phase:           0.000000 , Cycle:   1
(PID.TID 0000.0001)  missing value: -9.990000000000E+02
(PID.TID 0000.0001)  Levels:    will be set later
(PID.TID 0000.0001)  Fields:    TRAC16
(PID.TID 0000.0001) Creating Output Stream: PON
(PID.TID 0000.0001) Output Frequency:    2635200.000000 ; Phase:           0.000000
(PID.TID 0000.0001)  Averaging Freq.:    2635200.000000 , Phase:           0.000000 , Cycle:   1
(PID.TID 0000.0001)  missing value: -9.990000000000E+02
(PID.TID 0000.0001)  Levels:    will be set later
(PID.TID 0000.0001)  Fields:    TRAC17
(PID.TID 0000.0001) Creating Output Stream: POFe
(PID.TID 0000.0001) Output Frequency:    2635200.000000 ; Phase:           0.000000
(PID.TID 0000.0001)  Averaging Freq.:    2635200.000000 , Phase:           0.000000 , Cycle:   1
(PID.TID 0000.0001)  missing value: -9.990000000000E+02
(PID.TID 0000.0001)  Levels:    will be set later
(PID.TID 0000.0001)  Fields:    TRAC18
(PID.TID 0000.0001) Creating Output Stream: POSi
(PID.TID 0000.0001) Output Frequency:    2635200.000000 ; Phase:           0.000000
(PID.TID 0000.0001)  Averaging Freq.:    2635200.000000 , Phase:           0.000000 , Cycle:   1
(PID.TID 0000.0001)  missing value: -9.990000000000E+02
(PID.TID 0000.0001)  Levels:    will be set later
(PID.TID 0000.0001)  Fields:    TRAC19
(PID.TID 0000.0001) Creating Output Stream: NH4
(PID.TID 0000.0001) Output Frequency:    2635200.000000 ; Phase:           0.000000
(PID.TID 0000.0001)  Averaging Freq.:    2635200.000000 , Phase:           0.000000 , Cycle:   1
(PID.TID 0000.0001)  missing value: -9.990000000000E+02
(PID.TID 0000.0001)  Levels:    will be set later
(PID.TID 0000.0001)  Fields:    TRAC20
(PID.TID 0000.0001) Creating Output Stream: NO2
(PID.TID 0000.0001) Output Frequency:    2635200.000000 ; Phase:           0.000000
(PID.TID 0000.0001)  Averaging Freq.:    2635200.000000 , Phase:           0.000000 , Cycle:   1
(PID.TID 0000.0001)  missing value: -9.990000000000E+02
(PID.TID 0000.0001)  Levels:    will be set later
(PID.TID 0000.0001)  Fields:    TRAC21
(PID.TID 0000.0001) Creating Output Stream: Phy01
(PID.TID 0000.0001) Output Frequency:    2635200.000000 ; Phase:           0.000000
(PID.TID 0000.0001)  Averaging Freq.:    2635200.000000 , Phase:           0.000000 , Cycle:   1
(PID.TID 0000.0001)  missing value: -9.990000000000E+02
(PID.TID 0000.0001)  Levels:    will be set later
(PID.TID 0000.0001)  Fields:    TRAC22
(PID.TID 0000.0001) Creating Output Stream: Phy02
(PID.TID 0000.0001) Output Frequency:    2635200.000000 ; Phase:           0.000000
(PID.TID 0000.0001)  Averaging Freq.:    2635200.000000 , Phase:           0.000000 , Cycle:   1
(PID.TID 0000.0001)  missing value: -9.990000000000E+02
(PID.TID 0000.0001)  Levels:    will be set later
(PID.TID 0000.0001)  Fields:    TRAC23
(PID.TID 0000.0001) Creating Output Stream: Phy03
(PID.TID 0000.0001) Output Frequency:    2635200.000000 ; Phase:           0.000000
(PID.TID 0000.0001)  Averaging Freq.:    2635200.000000 , Phase:           0.000000 , Cycle:   1
(PID.TID 0000.0001)  missing value: -9.990000000000E+02
(PID.TID 0000.0001)  Levels:    will be set later
(PID.TID 0000.0001)  Fields:    TRAC24
(PID.TID 0000.0001) Creating Output Stream: Phy04
(PID.TID 0000.0001) Output Frequency:    2635200.000000 ; Phase:           0.000000
(PID.TID 0000.0001)  Averaging Freq.:    2635200.000000 , Phase:           0.000000 , Cycle:   1
(PID.TID 0000.0001)  missing value: -9.990000000000E+02
(PID.TID 0000.0001)  Levels:    will be set later
(PID.TID 0000.0001)  Fields:    TRAC25
(PID.TID 0000.0001) Creating Output Stream: Phy05
(PID.TID 0000.0001) Output Frequency:    2635200.000000 ; Phase:           0.000000
(PID.TID 0000.0001)  Averaging Freq.:    2635200.000000 , Phase:           0.000000 , Cycle:   1
(PID.TID 0000.0001)  missing value: -9.990000000000E+02
(PID.TID 0000.0001)  Levels:    will be set later
(PID.TID 0000.0001)  Fields:    TRAC26
(PID.TID 0000.0001) Creating Output Stream: DOC
(PID.TID 0000.0001) Output Frequency:    2635200.000000 ; Phase:           0.000000
(PID.TID 0000.0001)  Averaging Freq.:    2635200.000000 , Phase:           0.000000 , Cycle:   1
(PID.TID 0000.0001)  missing value: -9.990000000000E+02
(PID.TID 0000.0001)  Levels:    will be set later
(PID.TID 0000.0001)  Fields:    TRAC33
(PID.TID 0000.0001) Creating Output Stream: POC
(PID.TID 0000.0001) Output Frequency:    2635200.000000 ; Phase:           0.000000
(PID.TID 0000.0001)  Averaging Freq.:    2635200.000000 , Phase:           0.000000 , Cycle:   1
(PID.TID 0000.0001)  missing value: -9.990000000000E+02
(PID.TID 0000.0001)  Levels:    will be set later
(PID.TID 0000.0001)  Fields:    TRAC34
(PID.TID 0000.0001) Creating Output Stream: PIC
(PID.TID 0000.0001) Output Frequency:    2635200.000000 ; Phase:           0.000000
(PID.TID 0000.0001)  Averaging Freq.:    2635200.000000 , Phase:           0.000000 , Cycle:   1
(PID.TID 0000.0001)  missing value: -9.990000000000E+02
(PID.TID 0000.0001)  Levels:    will be set later
(PID.TID 0000.0001)  Fields:    TRAC35
(PID.TID 0000.0001) Creating Output Stream: ALK
(PID.TID 0000.0001) Output Frequency:    2635200.000000 ; Phase:           0.000000
(PID.TID 0000.0001)  Averaging Freq.:    2635200.000000 , Phase:           0.000000 , Cycle:   1
(PID.TID 0000.0001)  missing value: -9.990000000000E+02
(PID.TID 0000.0001)  Levels:    will be set later
(PID.TID 0000.0001)  Fields:    TRAC36
(PID.TID 0000.0001) Creating Output Stream: O2
(PID.TID 0000.0001) Output Frequency:    2635200.000000 ; Phase:           0.000000
(PID.TID 0000.0001)  Averaging Freq.:    2635200.000000 , Phase:           0.000000 , Cycle:   1
(PID.TID 0000.0001)  missing value: -9.990000000000E+02
(PID.TID 0000.0001)  Levels:    will be set later
(PID.TID 0000.0001)  Fields:    TRAC37
(PID.TID 0000.0001) Creating Output Stream: ZOOC1
(PID.TID 0000.0001) Output Frequency:    2635200.000000 ; Phase:           0.000000
(PID.TID 0000.0001)  Averaging Freq.:    2635200.000000 , Phase:           0.000000 , Cycle:   1
(PID.TID 0000.0001)  missing value: -9.990000000000E+02
(PID.TID 0000.0001)  Levels:    will be set later
(PID.TID 0000.0001)  Fields:    TRAC38
(PID.TID 0000.0001) Creating Output Stream: ZOOC2
(PID.TID 0000.0001) Output Frequency:    2635200.000000 ; Phase:           0.000000
(PID.TID 0000.0001)  Averaging Freq.:    2635200.000000 , Phase:           0.000000 , Cycle:   1
(PID.TID 0000.0001)  missing value: -9.990000000000E+02
(PID.TID 0000.0001)  Levels:    will be set later
(PID.TID 0000.0001)  Fields:    TRAC39
(PID.TID 0000.0001) Creating Output Stream: CHL1
(PID.TID 0000.0001) Output Frequency:    2635200.000000 ; Phase:           0.000000
(PID.TID 0000.0001)  Averaging Freq.:    2635200.000000 , Phase:           0.000000 , Cycle:   1
(PID.TID 0000.0001)  missing value: -9.990000000000E+02
(PID.TID 0000.0001)  Levels:    will be set later
(PID.TID 0000.0001)  Fields:    TRAC27
(PID.TID 0000.0001) Creating Output Stream: CHL2
(PID.TID 0000.0001) Output Frequency:    2635200.000000 ; Phase:           0.000000
(PID.TID 0000.0001)  Averaging Freq.:    2635200.000000 , Phase:           0.000000 , Cycle:   1
(PID.TID 0000.0001)  missing value: -9.990000000000E+02
(PID.TID 0000.0001)  Levels:    will be set later
(PID.TID 0000.0001)  Fields:    TRAC28
(PID.TID 0000.0001) Creating Output Stream: CHL3
(PID.TID 0000.0001) Output Frequency:    2635200.000000 ; Phase:           0.000000
(PID.TID 0000.0001)  Averaging Freq.:    2635200.000000 , Phase:           0.000000 , Cycle:   1
(PID.TID 0000.0001)  missing value: -9.990000000000E+02
(PID.TID 0000.0001)  Levels:    will be set later
(PID.TID 0000.0001)  Fields:    TRAC29
(PID.TID 0000.0001) Creating Output Stream: CHL4
(PID.TID 0000.0001) Output Frequency:    2635200.000000 ; Phase:           0.000000
(PID.TID 0000.0001)  Averaging Freq.:    2635200.000000 , Phase:           0.000000 , Cycle:   1
(PID.TID 0000.0001)  missing value: -9.990000000000E+02
(PID.TID 0000.0001)  Levels:    will be set later
(PID.TID 0000.0001)  Fields:    TRAC30
(PID.TID 0000.0001) Creating Output Stream: CHL5
(PID.TID 0000.0001) Output Frequency:    2635200.000000 ; Phase:           0.000000
(PID.TID 0000.0001)  Averaging Freq.:    2635200.000000 , Phase:           0.000000 , Cycle:   1
(PID.TID 0000.0001)  missing value: -9.990000000000E+02
(PID.TID 0000.0001)  Levels:    will be set later
(PID.TID 0000.0001)  Fields:    TRAC31
(PID.TID 0000.0001) Creating Output Stream: EXFwspee
(PID.TID 0000.0001) Output Frequency:      86400.000000 ; Phase:           0.000000
(PID.TID 0000.0001)  Averaging Freq.:      86400.000000 , Phase:           0.000000 , Cycle:   1
(PID.TID 0000.0001)  missing value: -9.990000000000E+02
(PID.TID 0000.0001)  Levels:    will be set later
(PID.TID 0000.0001)  Fields:    EXFwspee
(PID.TID 0000.0001) Creating Output Stream: PAR
(PID.TID 0000.0001) Output Frequency:    2635200.000000 ; Phase:           0.000000
(PID.TID 0000.0001)  Averaging Freq.:    2635200.000000 , Phase:           0.000000 , Cycle:   1
(PID.TID 0000.0001)  missing value: -9.990000000000E+02
(PID.TID 0000.0001)  Levels:    will be set later
(PID.TID 0000.0001)  Fields:    PAR
(PID.TID 0000.0001) Creating Output Stream: PP
(PID.TID 0000.0001) Output Frequency:    2635200.000000 ; Phase:           0.000000
(PID.TID 0000.0001)  Averaging Freq.:    2635200.000000 , Phase:           0.000000 , Cycle:   1
(PID.TID 0000.0001)  missing value: -9.990000000000E+02
(PID.TID 0000.0001)  Levels:    will be set later
(PID.TID 0000.0001)  Fields:    PP
(PID.TID 0000.0001) Creating Output Stream: SIarea_month
(PID.TID 0000.0001) Output Frequency:    2635200.000000 ; Phase:           0.000000
(PID.TID 0000.0001)  Averaging Freq.:    2635200.000000 , Phase:           0.000000 , Cycle:   1
(PID.TID 0000.0001)  missing value: -9.990000000000E+02
(PID.TID 0000.0001)  Levels:    will be set later
(PID.TID 0000.0001)  Fields:    SIarea
(PID.TID 0000.0001) Creating Output Stream: SIheff_month
(PID.TID 0000.0001) Output Frequency:    2635200.000000 ; Phase:           0.000000
(PID.TID 0000.0001)  Averaging Freq.:    2635200.000000 , Phase:           0.000000 , Cycle:   1
(PID.TID 0000.0001)  missing value: -9.990000000000E+02
(PID.TID 0000.0001)  Levels:    will be set later
(PID.TID 0000.0001)  Fields:    SIheff
(PID.TID 0000.0001) Creating Output Stream: EXFapco2month
(PID.TID 0000.0001) Output Frequency:    2635200.000000 ; Phase:           0.000000
(PID.TID 0000.0001)  Averaging Freq.:    2635200.000000 , Phase:           0.000000 , Cycle:   1
(PID.TID 0000.0001)  missing value: -9.990000000000E+02
(PID.TID 0000.0001)  Levels:    will be set later
(PID.TID 0000.0001)  Fields:    EXFapco2
(PID.TID 0000.0001) Creating Output Stream: EXFapco2snap
(PID.TID 0000.0001) Output Frequency:   -2535200.000000 ; Phase:           0.000000
(PID.TID 0000.0001)  Averaging Freq.:          0.000000 , Phase:           0.000000 , Cycle:   1
(PID.TID 0000.0001)  missing value: -9.990000000000E+02
(PID.TID 0000.0001)  Levels:    will be set later
(PID.TID 0000.0001)  Fields:    EXFapco2
(PID.TID 0000.0001) Creating Output Stream: DICCFLX3hrly
(PID.TID 0000.0001) Output Frequency:      10800.000000 ; Phase:           0.000000
(PID.TID 0000.0001)  Averaging Freq.:      10800.000000 , Phase:           0.000000 , Cycle:   1
(PID.TID 0000.0001)  missing value: -9.990000000000E+02
(PID.TID 0000.0001)  Levels:    will be set later
(PID.TID 0000.0001)  Fields:    DICCFLX
(PID.TID 0000.0001) Creating Output Stream: DICFGCO2
(PID.TID 0000.0001) Output Frequency:    2635200.000000 ; Phase:           0.000000
(PID.TID 0000.0001)  Averaging Freq.:    2635200.000000 , Phase:           0.000000 , Cycle:   1
(PID.TID 0000.0001)  missing value: -9.990000000000E+02
(PID.TID 0000.0001)  Levels:    will be set later
(PID.TID 0000.0001)  Fields:    DICFGCO2
(PID.TID 0000.0001) Creating Output Stream: UE_VEL_C
(PID.TID 0000.0001) Output Frequency:    2635200.000000 ; Phase:           0.000000
(PID.TID 0000.0001)  Averaging Freq.:    2635200.000000 , Phase:           0.000000 , Cycle:   1
(PID.TID 0000.0001)  missing value: -9.990000000000E+02
(PID.TID 0000.0001)  Levels:    will be set later
(PID.TID 0000.0001)  Fields:    UE_VEL_C
(PID.TID 0000.0001) Creating Output Stream: VN_VEL_C
(PID.TID 0000.0001) Output Frequency:    2635200.000000 ; Phase:           0.000000
(PID.TID 0000.0001)  Averaging Freq.:    2635200.000000 , Phase:           0.000000 , Cycle:   1
(PID.TID 0000.0001)  missing value: -9.990000000000E+02
(PID.TID 0000.0001)  Levels:    will be set later
(PID.TID 0000.0001)  Fields:    VN_VEL_C
(PID.TID 0000.0001) Creating Output Stream: WVEL
(PID.TID 0000.0001) Output Frequency:    2635200.000000 ; Phase:           0.000000
(PID.TID 0000.0001)  Averaging Freq.:    2635200.000000 , Phase:           0.000000 , Cycle:   1
(PID.TID 0000.0001)  missing value: -9.990000000000E+02
(PID.TID 0000.0001)  Levels:    will be set later
(PID.TID 0000.0001)  Fields:    WVEL
(PID.TID 0000.0001) Creating Output Stream: DICCFLXmonth
(PID.TID 0000.0001) Output Frequency:    2635200.000000 ; Phase:           0.000000
(PID.TID 0000.0001)  Averaging Freq.:    2635200.000000 , Phase:           0.000000 , Cycle:   1
(PID.TID 0000.0001)  missing value: -9.990000000000E+02
(PID.TID 0000.0001)  Levels:    will be set later
(PID.TID 0000.0001)  Fields:    DICCFLX
(PID.TID 0000.0001) Creating Output Stream: DICPCO2month
(PID.TID 0000.0001) Output Frequency:    2635200.000000 ; Phase:           0.000000
(PID.TID 0000.0001)  Averaging Freq.:    2635200.000000 , Phase:           0.000000 , Cycle:   1
(PID.TID 0000.0001)  missing value: -9.990000000000E+02
(PID.TID 0000.0001)  Levels:    will be set later
(PID.TID 0000.0001)  Fields:    DICPCO2
(PID.TID 0000.0001) Creating Output Stream: DICOFLX_month
(PID.TID 0000.0001) Output Frequency:    2635200.000000 ; Phase:           0.000000
(PID.TID 0000.0001)  Averaging Freq.:    2635200.000000 , Phase:           0.000000 , Cycle:   1
(PID.TID 0000.0001)  missing value: -9.990000000000E+02
(PID.TID 0000.0001)  Levels:    will be set later
(PID.TID 0000.0001)  Fields:    DICOFLX
(PID.TID 0000.0001) Creating Output Stream: oceQswMonth
(PID.TID 0000.0001) Output Frequency:    2635200.000000 ; Phase:           0.000000
(PID.TID 0000.0001)  Averaging Freq.:    2635200.000000 , Phase:           0.000000 , Cycle:   1
(PID.TID 0000.0001)  missing value: -9.990000000000E+02
(PID.TID 0000.0001)  Levels:    will be set later
(PID.TID 0000.0001)  Fields:    oceQsw
(PID.TID 0000.0001) Creating Output Stream: oceQnetMonth
(PID.TID 0000.0001) Output Frequency:    2635200.000000 ; Phase:           0.000000
(PID.TID 0000.0001)  Averaging Freq.:    2635200.000000 , Phase:           0.000000 , Cycle:   1
(PID.TID 0000.0001)  missing value: -9.990000000000E+02
(PID.TID 0000.0001)  Levels:    will be set later
(PID.TID 0000.0001)  Fields:    oceQnet
(PID.TID 0000.0001) Creating Output Stream: EXFwspeeMonth
(PID.TID 0000.0001) Output Frequency:    2635200.000000 ; Phase:           0.000000
(PID.TID 0000.0001)  Averaging Freq.:    2635200.000000 , Phase:           0.000000 , Cycle:   1
(PID.TID 0000.0001)  missing value: -9.990000000000E+02
(PID.TID 0000.0001)  Levels:    will be set later
(PID.TID 0000.0001)  Fields:    EXFwspee
(PID.TID 0000.0001) Creating Output Stream: surfDiag
(PID.TID 0000.0001) Output Frequency:    2635200.000000 ; Phase:           0.000000
(PID.TID 0000.0001)  Averaging Freq.:    2635200.000000 , Phase:           0.000000 , Cycle:   1
(PID.TID 0000.0001)  missing value: -9.990000000000E+02
(PID.TID 0000.0001)  Levels:       1.
(PID.TID 0000.0001)  Fields:    TFLUX    SFLUX    MXLDEPTH oceFWflx oceQsw
(PID.TID 0000.0001) Creating Output Stream: velMassDiag
(PID.TID 0000.0001) Output Frequency:    2635200.000000 ; Phase:           0.000000
(PID.TID 0000.0001)  Averaging Freq.:    2635200.000000 , Phase:           0.000000 , Cycle:   1
(PID.TID 0000.0001)  missing value: -9.990000000000E+02
(PID.TID 0000.0001)  Levels:    will be set later
(PID.TID 0000.0001)  Fields:    UVELMASS VVELMASS WVELMASS
(PID.TID 0000.0001) Creating Output Stream: dic_surfDiag
(PID.TID 0000.0001) Output Frequency:    2635200.000000 ; Phase:           0.000000
(PID.TID 0000.0001)  Averaging Freq.:    2635200.000000 , Phase:           0.000000 , Cycle:   1
(PID.TID 0000.0001)  missing value: -9.990000000000E+02
(PID.TID 0000.0001)  Levels:       1.
(PID.TID 0000.0001)  Fields:    DICCFLX  DICTFLX
(PID.TID 0000.0001) Creating Output Stream: theta_flxDiag
(PID.TID 0000.0001) Output Frequency:    2635200.000000 ; Phase:           0.000000
(PID.TID 0000.0001)  Averaging Freq.:    2635200.000000 , Phase:           0.000000 , Cycle:   1
(PID.TID 0000.0001)  missing value: -9.990000000000E+02
(PID.TID 0000.0001)  Levels:    will be set later
(PID.TID 0000.0001)  Fields:    THETA    TOTTTEND ADVx_TH  ADVy_TH  ADVr_TH  DFxE_TH  DFyE_TH  DFrE_TH  DFrI_TH
(PID.TID 0000.0001) Creating Output Stream: salt_flxDiag
(PID.TID 0000.0001) Output Frequency:    2635200.000000 ; Phase:           0.000000
(PID.TID 0000.0001)  Averaging Freq.:    2635200.000000 , Phase:           0.000000 , Cycle:   1
(PID.TID 0000.0001)  missing value: -9.990000000000E+02
(PID.TID 0000.0001)  Levels:    will be set later
(PID.TID 0000.0001)  Fields:    SALT     TOTSTEND ADVx_SLT ADVy_SLT ADVr_SLT DFxE_SLT DFyE_SLT DFrE_SLT DFrI_SLT oceSPtnd
(PID.TID 0000.0001) Creating Output Stream: dic_flxDiag
(PID.TID 0000.0001) Output Frequency:    2635200.000000 ; Phase:           0.000000
(PID.TID 0000.0001)  Averaging Freq.:    2635200.000000 , Phase:           0.000000 , Cycle:   1
(PID.TID 0000.0001)  missing value: -9.990000000000E+02
(PID.TID 0000.0001)  Levels:    will be set later
(PID.TID 0000.0001)  Fields:    TRAC32   ADVxTr32 ADVyTr32 ADVrTr32 DFxETr32 DFyETr32 DFrETr32 DFrITr32
(PID.TID 0000.0001) Creating Output Stream: alk_flxDiag
(PID.TID 0000.0001) Output Frequency:    2635200.000000 ; Phase:           0.000000
(PID.TID 0000.0001)  Averaging Freq.:    2635200.000000 , Phase:           0.000000 , Cycle:   1
(PID.TID 0000.0001)  missing value: -9.990000000000E+02
(PID.TID 0000.0001)  Levels:    will be set later
(PID.TID 0000.0001)  Fields:    TRAC36   ADVxTr36 ADVyTr36 ADVrTr36 DFxETr36 DFyETr36 DFrETr36 DFrITr36
(PID.TID 0000.0001) Creating Output Stream: po4_flxDiag
(PID.TID 0000.0001) Output Frequency:    2635200.000000 ; Phase:           0.000000
(PID.TID 0000.0001)  Averaging Freq.:    2635200.000000 , Phase:           0.000000 , Cycle:   1
(PID.TID 0000.0001)  missing value: -9.990000000000E+02
(PID.TID 0000.0001)  Levels:    will be set later
(PID.TID 0000.0001)  Fields:    TRAC01   ADVxTr01 ADVyTr01 ADVrTr01 DFxETr01 DFyETr01 DFrETr01 DFrITr01
(PID.TID 0000.0001) Creating Output Stream: snapDiag
(PID.TID 0000.0001) Output Frequency:   -2635200.000000 ; Phase:           0.000000
(PID.TID 0000.0001)  Averaging Freq.:          0.000000 , Phase:           0.000000 , Cycle:   1
(PID.TID 0000.0001)  missing value: -9.990000000000E+02
(PID.TID 0000.0001)  Levels:    will be set later
(PID.TID 0000.0001)  Fields:    THETA    SALT     TRAC32   TRAC36   TRAC01
(PID.TID 0000.0001) -----------------------------------------------------
(PID.TID 0000.0001)  DIAGNOSTICS_READPARMS: statistics diags. summary:
(PID.TID 0000.0001) -----------------------------------------------------
(PID.TID 0000.0001) 
(PID.TID 0000.0001) SET_PARMS: done
(PID.TID 0000.0001) Enter INI_VERTICAL_GRID: setInterFDr=    T ; setCenterDr=    F
(PID.TID 0000.0001) %MON XC_max                       =   3.5859375000000E+02
(PID.TID 0000.0001) %MON XC_min                       =   1.4062500000000E+00
(PID.TID 0000.0001) %MON XC_mean                      =   1.8000000000000E+02
(PID.TID 0000.0001) %MON XC_sd                        =   1.0391987692599E+02
(PID.TID 0000.0001) %MON XG_max                       =   3.5718750000000E+02
(PID.TID 0000.0001) %MON XG_min                       =   0.0000000000000E+00
(PID.TID 0000.0001) %MON XG_mean                      =   1.7859375000000E+02
(PID.TID 0000.0001) %MON XG_sd                        =   1.0391987692599E+02
(PID.TID 0000.0001) %MON DXC_max                      =   3.1259246843155E+05
(PID.TID 0000.0001) %MON DXC_min                      =   7.6737143816223E+03
(PID.TID 0000.0001) %MON DXC_mean                     =   1.9908248704234E+05
(PID.TID 0000.0001) %MON DXC_sd                       =   9.6190602240067E+04
(PID.TID 0000.0001) %MON DXF_max                      =   3.1259246843155E+05
(PID.TID 0000.0001) %MON DXF_min                      =   7.6737143816223E+03
(PID.TID 0000.0001) %MON DXF_mean                     =   1.9908248704234E+05
(PID.TID 0000.0001) %MON DXF_sd                       =   9.6190602240067E+04
(PID.TID 0000.0001) %MON DXG_max                      =   3.1268664380261E+05
(PID.TID 0000.0001) %MON DXG_min                      =   0.0000000000000E+00
(PID.TID 0000.0001) %MON DXG_mean                     =   1.9902252711933E+05
(PID.TID 0000.0001) %MON DXG_sd                       =   9.6314600686012E+04
(PID.TID 0000.0001) %MON DXV_max                      =   3.1268664380261E+05
(PID.TID 0000.0001) %MON DXV_min                      =   0.0000000000000E+00
(PID.TID 0000.0001) %MON DXV_mean                     =   1.9902252711933E+05
(PID.TID 0000.0001) %MON DXV_sd                       =   9.6314600686012E+04
(PID.TID 0000.0001) %MON YC_max                       =   8.8593750000000E+01
(PID.TID 0000.0001) %MON YC_min                       =  -8.8593750000000E+01
(PID.TID 0000.0001) %MON YC_mean                      =   0.0000000000000E+00
(PID.TID 0000.0001) %MON YC_sd                        =   5.1955180880375E+01
(PID.TID 0000.0001) %MON YG_max                       =   8.7187500000000E+01
(PID.TID 0000.0001) %MON YG_min                       =  -9.0000000000000E+01
(PID.TID 0000.0001) %MON YG_mean                      =  -1.4062500000000E+00
(PID.TID 0000.0001) %MON YG_sd                        =   5.1955180880375E+01
(PID.TID 0000.0001) %MON DYC_max                      =   3.1268664380261E+05
(PID.TID 0000.0001) %MON DYC_min                      =   3.1268664380261E+05
(PID.TID 0000.0001) %MON DYC_mean                     =   3.1268664380260E+05
(PID.TID 0000.0001) %MON DYC_sd                       =   4.3655745685101E-09
(PID.TID 0000.0001) %MON DYF_max                      =   3.1268664380261E+05
(PID.TID 0000.0001) %MON DYF_min                      =   3.1268664380261E+05
(PID.TID 0000.0001) %MON DYF_mean                     =   3.1268664380260E+05
(PID.TID 0000.0001) %MON DYF_sd                       =   4.3655745685101E-09
(PID.TID 0000.0001) %MON DYG_max                      =   3.1268664380261E+05
(PID.TID 0000.0001) %MON DYG_min                      =   3.1268664380261E+05
(PID.TID 0000.0001) %MON DYG_mean                     =   3.1268664380260E+05
(PID.TID 0000.0001) %MON DYG_sd                       =   4.3655745685101E-09
(PID.TID 0000.0001) %MON DYU_max                      =   3.1268664380261E+05
(PID.TID 0000.0001) %MON DYU_min                      =   3.1268664380261E+05
(PID.TID 0000.0001) %MON DYU_mean                     =   3.1268664380260E+05
(PID.TID 0000.0001) %MON DYU_sd                       =   4.3655745685101E-09
(PID.TID 0000.0001) %MON RA_max                       =   9.7733676797555E+10
(PID.TID 0000.0001) %MON RA_min                       =   2.3992270990190E+09
(PID.TID 0000.0001) %MON RA_mean                      =   6.2244185031956E+10
(PID.TID 0000.0001) %MON RA_sd                        =   3.0074496923945E+10
(PID.TID 0000.0001) %MON RAW_max                      =   9.7733676797555E+10
(PID.TID 0000.0001) %MON RAW_min                      =   2.3992270990190E+09
(PID.TID 0000.0001) %MON RAW_mean                     =   6.2244185031956E+10
(PID.TID 0000.0001) %MON RAW_sd                       =   3.0074496923945E+10
(PID.TID 0000.0001) %MON RAS_max                      =   9.7763121221868E+10
(PID.TID 0000.0001) %MON RAS_min                      =   0.0000000000000E+00
(PID.TID 0000.0001) %MON RAS_mean                     =   6.2225438247155E+10
(PID.TID 0000.0001) %MON RAS_sd                       =   3.0113265689232E+10
(PID.TID 0000.0001) %MON RAZ_max                      =   9.7763121221868E+10
(PID.TID 0000.0001) %MON RAZ_min                      =   0.0000000000000E+00
(PID.TID 0000.0001) %MON RAZ_mean                     =   6.2225438247155E+10
(PID.TID 0000.0001) %MON RAZ_sd                       =   3.0113265689232E+10
(PID.TID 0000.0001) %MON AngleCS_max                  =   1.0000000000000E+00
(PID.TID 0000.0001) %MON AngleCS_min                  =   1.0000000000000E+00
(PID.TID 0000.0001) %MON AngleCS_mean                 =   1.0000000000000E+00
(PID.TID 0000.0001) %MON AngleCS_sd                   =   0.0000000000000E+00
(PID.TID 0000.0001) %MON AngleSN_max                  =   0.0000000000000E+00
(PID.TID 0000.0001) %MON AngleSN_min                  =   0.0000000000000E+00
(PID.TID 0000.0001) %MON AngleSN_mean                 =   0.0000000000000E+00
(PID.TID 0000.0001) %MON AngleSN_sd                   =   0.0000000000000E+00
(PID.TID 0000.0001)  MDS_WRITEVEC_LOC: open file: RhoRef.data
(PID.TID 0000.0001)  MDS_WR_REC_RL: iRec,Dim =         1         15
(PID.TID 0000.0001)  MDS_READ_FIELD: opening global file: bathy.bin
(PID.TID 0000.0001) // =======================================================
(PID.TID 0000.0001) // Field Bottom depths (ini_depths)
(PID.TID 0000.0001) // CMIN =         -5.200000000000000E+03
(PID.TID 0000.0001) // CMAX =         -5.000000000000000E+01
(PID.TID 0000.0001) // CINT =          1.907407407407407E+02
(PID.TID 0000.0001) // SYMBOLS (CMIN->CMAX): -abcdefghijklmnopqrstuvwxyz+
(PID.TID 0000.0001) //                  0.0: .
(PID.TID 0000.0001) // RANGE I (Lo:Hi:Step):(    -3:   132:     1)
(PID.TID 0000.0001) // RANGE J (Lo:Hi:Step):(    68:    -3:    -1)
(PID.TID 0000.0001) // RANGE K (Lo:Hi:Step):(   1:   1:   1)
(PID.TID 0000.0001) // =======================================================
(PID.TID 0000.0001) K =   1
(PID.TID 0000.0001) //                I=6       I=16      I=26      I=36      I=46      I=56      I=66      I=68      I=78      I=88      I=98      I=108     I=118     I=128
(PID.TID 0000.0001) // |--J--|321012345|789012345|789012345|789012345|789012345|789012345|789012345|781234567|901234567|901234567|901234567|901234567|901234567|901234567|9012
(PID.TID 0000.0001) //     68 ................................................................................................................................................
(PID.TID 0000.0001) //     67 ................................................................................................................................................
(PID.TID 0000.0001) //     66 ................................................................................................................................................
(PID.TID 0000.0001) //     65 ................................................................................................................................................
(PID.TID 0000.0001) //     64 ................................................................................................................................................
(PID.TID 0000.0001) //     63 ................................................................................................................................................
(PID.TID 0000.0001) //     62 ................................................................................................................................................
(PID.TID 0000.0001) //     61 +zsnovwy++...+zzzzzz++++...............................................................................................................++zsnovwy
(PID.TID 0000.0001) //     60 +zrmmnot.....+zzzzzzzzz+.........................................................................................y....................zz+zrmmnot
(PID.TID 0000.0001) //     59 omjjklnoqyz++zyzzzzzzzz.........................................................................................yxwvvyy..............zzromjjklno
(PID.TID 0000.0001) //     58 sponmlmoqwzyzzzzzzzz++.............................................................................................wrtxz............zytssponmlmo
(PID.TID 0000.0001) //     57 rqmmmkmmz............................................................................................................tvz............xwurrqmmmkmm
(PID.TID 0000.0001) //     56 uqjmmuyz..............................................................................................................yx........yyyyy..zuqjmmuyz
(PID.TID 0000.0001) //     55 xwrrux..............................................................++......++.......................................+yuu.....wonrwyzzzyxwrrux..
(PID.TID 0000.0001) //     54 wyz++............................................................ymnz+++.ymnz+++......................................wmkkr..qmmotsqooruwyz++...
(PID.TID 0000.0001) //     53 v...++.................................................zzzz...omsjjjjm++sjjjjm+++.....zjghl...........................zojjjlkkloronmpvxtv...++..
(PID.TID 0000.0001) //     52 ....++................................................+xxyy...ggijjljjmpijjljjmpz.++tdeffhjm............................zmjiijlqnljlqtpo....++..
(PID.TID 0000.0001) //     51 .......................................................xvvx..ddfdhjsqmpqdhjsqmpqdbcddddefghjlz..........................zylgghhikkjhigqy........
(PID.TID 0000.0001) //     50 z+.....................................................+uutw---aaaa-----aaa------aaaabddefghjnq..........................zvogdefglkgfddpz+......
(PID.TID 0000.0001) //     49 dg+....................................................roqja--------------------------abddefhmmx..........................+whddehlnjdddddg+.....
(PID.TID 0000.0001) //     48 oxy.....................................................va------a-------a--------------addefgjlx.....................++nj+wfddfgjnmkgeddoxy.....
(PID.TID 0000.0001) //     47 t......................................................a------a----------------------aaaddefgiks...................+qfbaaahebddgoqnhfa--t.......
(PID.TID 0000.0001) //     46 v.....................................................z------d--a-d-----a-d----------------abddg..................lfdda-----bdhksrqhdacev.......
(PID.TID 0000.0001) //     45 g.....................................................b-----fb---cdhfe---cdhfe-------------aadddk................oeaaddb-abcehlnmkgcabjdg.......
(PID.TID 0000.0001) //     44 .................................................+.vgs-----ci----aaa-----aaa--------------bddddefu..............xf--ddb---adhlkihjd-bfgi........
(PID.TID 0000.0001) //     43 ................................................+ywfdng-------------a-a-----a-a--------abddddddefhr............+vd--ab----afkjgccda-deju........
(PID.TID 0000.0001) //     42 ...............................................+zveddhna-------------dde-----ddedbba----addddddeffh............+vd-------acgifaa-aaadis.........
(PID.TID 0000.0001) //     41 .........................op.....................qdeeddn---a--a--------dd------ddheddea---abddddeefgizw.......t+++n-------adifd-----dem..........
(PID.TID 0000.0001) //     40 .........................ljn.................zom----ddil---aac---fkic-df-fkic-dfdddgja------ddddegghjl.......tmv.uq------adifa--bbadfs..........
(PID.TID 0000.0001) //     39 ........................zhijj.....ppq.......rjmxa---bdfiea----acaigefghfaigefghf---cda-------adefggijjl......jkrvt.vnu--adejfa-aadehjm..........
(PID.TID 0000.0001) //     38 .......................nhggghr...llmn+.....vngt.g--aadfib---------ea---a--ea---aa---------bbbaddefggjhkjiv.....wphiggrna-agifaa---cljn..........
(PID.TID 0000.0001) //     37 ....................wttlheefes..+jjkmu+....oggx.x---adig-----addd-------d----------------bbbdddddeefghjkiggh...ojizsjssjbadfhca----bdj..........
(PID.TID 0000.0001) //     36 ......................qghfdddpq.+hiipoz....rrt...--adiige----gdefd-----cfd-----caebb-dd--abbdddddeeghikjhghhjy.vt......mgddddhfbaa-adh..........
(PID.TID 0000.0001) //     35 ......................adgieddkos+gghksy....tt....--gdimmnheeddcdfd---a--fd---a--ackfbaabddddddddefffgghkjihhjqt.........+sfeddfhgfefhdd+........
(PID.TID 0000.0001) //     34 l+owgp+..............laddfiighojeefght........wjlldfdelfedhkigddddd--a--ddd--a---aehdddddddddddddeeggghjjjjlqolm..........zjfedgkhfegdddl+owgp+.
(PID.TID 0000.0001) //     33 caaddgn.............jcadddfkggoedddged.........zxxifefkeddhnmgddddd-----ddd-------afddeddddddddddefgghijjkmqomkv...........zfeefkkhhddcccaaddgn.
(PID.TID 0000.0001) //     32 fdaddfl............kdbadddeiigjddddfddd.........yy..zomsrqjqpjdefeda----feda-----aaadddddddddddddeeefghjjjjkqnr..............kjfeffdcfgifdaddfl.
(PID.TID 0000.0001) //     31 heddddes..........vgdddsggfhiidaaddfddcd........xxv.....t.srroljiea-----iea------faaaadddddddddddeeefijiihhhiii................nea--adgkheddddes
(PID.TID 0000.0001) //     30 hdde--di..........rgdfehqiggjtaaaddfaaa-fx...zxxxxw++....mj.spjhdaad---adaad---adge-aaaadefddddddeefikiggggfffe................zd---adhlhdde--di
(PID.TID 0000.0001) //     29 heda--aey.........rigfffhyjjjlaaadddaaaa-ailnmxxxx++++.+..qoqqklfdddfffdfdddfffdfhka-acbddifdefgggfikjheeggfeddl...............vb---aehlheda--ae
(PID.TID 0000.0001) //     36 ......................qghfdddpq.+hiipoz....rrt...--adiige----gdefd-----cfd-----caebb-dd--abbdddddeeghikjhghhjy.vt......mgddddhfbaa-adh..........
(PID.TID 0000.0001) //     35 ......................adgieddkos+gghksy....tt....--gdimmnheeddcdfd---a--fd---a--ackfbaabddddddddefffgghkjihhjqt.........+sfeddfhgfefhdd+........
(PID.TID 0000.0001) //     34 l+owgp+..............laddfiighojeefght........wjlldfdelfedhkigddddd--a--ddd--a---aehdddddddddddddeeggghjjjjlqolm..........zjfedgkhfegdddl+owgp+.
(PID.TID 0000.0001) //     33 caaddgn.............jcadddfkggoedddged.........zxxifefkeddhnmgddddd-----ddd-------afddeddddddddddefgghijjkmqomkv...........zfeefkkhhddcccaaddgn.
(PID.TID 0000.0001) //     32 fdaddfl............kdbadddeiigjddddfddd.........yy..zomsrqjqpjdefeda----feda-----aaadddddddddddddeeefghjjjjkqnr..............kjfeffdcfgifdaddfl.
(PID.TID 0000.0001) //     31 heddddes..........vgdddsggfhiidaaddfddcd........xxv.....t.srroljiea-----iea------faaaadddddddddddeeefijiihhhiii................nea--adgkheddddes
(PID.TID 0000.0001) //     30 hdde--di..........rgdfehqiggjtaaaddfaaa-fx...zxxxxw++....mj.spjhdaad---adaad---adge-aaaadefddddddeefikiggggfffe................zd---adhlhdde--di
(PID.TID 0000.0001) //     29 heda--aey.........rigfffhyjjjlaaadddaaaa-ailnmxxxx++++.+..qoqqklfdddfffdfdddfffdfhka-acbddifdefgggfikjheeggfeddl...............vb---aehlheda--ae
(PID.TID 0000.0001) //     28 hfd---afy.........+kj.ddfojkhfa-addg--d-c-ddd-jx++.....rjggpmigqkllopidckllopidc-dlaaadddeffffggghijkigefghgfddd..............+ec---ddjjhfd---af
(PID.TID 0000.0001) //     27 heda--ag..........zm..edfxikiddaaafla-a----dedr+........vugklgftkllpqqkckllpqqkc--dddefornkfffgghhjkjhgfhhgeddddi.............rdda--dfjkheda--ag
(PID.TID 0000.0001) //     26 heda---h..........r+..ddjiimieddaadl-a-----dsw+..........yqnlkkjnlnvsqibnlnvsqib--ddddiffkkjgfghhhjkjhgfeefedddgfd............+fdb--afilheda---h
(PID.TID 0000.0001) //     25 jdd--bkn.........mmz.ndfffimlfddddejda---abfw.............zpvsrsnlljrs--nlljrs---addddddedggggghhijkiggfffffeeggdde...........nfea--adfljdd--bkn
(PID.TID 0000.0001) //     24 fd---gngu.......zkjx.fddddegkiffdddjd---aajm..............zppsotngdhsp--ngdhsp----bdddddddefhihijjljjhghggggghjedff..........pheb---ddgkfd---gng
(PID.TID 0000.0001) //     23 fedackddm.......tfejsd---degikiffeefdccfba-m..............+gmtmomidiqi--midiqi-----dddddifeefgghijklmkkjiiihihgffff........zoledcaabdfhkfedackdd
(PID.TID 0000.0001) //     22 heddhaadjz.....uqbcnnfabdfddffjifffolnljda--+.............zdntmnmngiq---mngiq------ddddddeeeeefghijlmkjihhhihggfeev........ohgfqihdddfilheddhaad
(PID.TID 0000.0001) //     21 fefgebabgq.....jpabrofdfiddddfilihjleeonb-abn....++.......sdluotmqjll---mqjll------dddddddddeffghhikmjjihhhihggfef+.......shgfflgiddfhkkfefgebab
(PID.TID 0000.0001) //     20 gggdb--addw.zgegi-allghkdddddegllhhgfeddc--kl+vhcdnw......dccotrr.tnd--ar.tnd--aa--------ddddffffhhjmjiiiiihgggfff.......xfbbbdddffggjkjgggdb--a
(PID.TID 0000.0001) //     19 jjfda--addddgkefdadkknkfd-adeegnkihhhgfddddddda------v...kddadsvv..via-bv..via-bb--d------abddddeegjmjgfgijihggffp......zfa-aaaddddfgklljjfda--a
(PID.TID 0000.0001) //     18 hgddca-dddaagndddflnkjheb-adefglllllkjhfeeddddba-----df..gddbdfux..olifdx..olifdba-ddd------adddeehkmihfefijihgggy......h------abddfhkljhgddca-d
(PID.TID 0000.0001) //     17 ggffdddddaabca-dgnomnmjfcbddfgikkklklljhgggedddddddddddn+jddbddr..yxxxqk..yxxxqk--addd------adddfghkljigeeefgikii+...++p---aaa--adddgjkjggffdddd
(PID.TID 0000.0001) //     16 lifeddfedccb--aglnpqpnmgddfpunjjjjjjjklkjihgffeddddeefdjqgdcbde..tsojdaa.tsojdaa-aadddbaaaaadddefgjlljhgeeeeffhjk....++j---------addfgkllifeddfe
(PID.TID 0000.0001) //     15 lljhgghgdcddb-dfdefffffedeou.xnmjjgghijjjkkjjhgggghikjgggldddekzxxvvga--xxvvga--aaaabcddddddddeghiklkihfedddddefi....+zsqmb-afaaabddffhjlljhgghg
(PID.TID 0000.0001) //     14 jnonnkhikkjjhfc-bfmlhfeedddglxytmjdefhhhhhiihgfedghikljifeddfhjxyydba--ayydba--aaabcdddefhfddefhjmljhhfedddddddfgj..+zzsqpnnqjigifffdefhjnonnkhi
(PID.TID 0000.0001) //     13 ijnomnlgddfeeb---gjfeddddddhgmsrjgddeefgggggedddddefgjlmghgfjgkusaa---aasaa---aabcddghiiijmljihimljhhgeddcdaadddfjlllkjihggjkmwvjddfddefijnomnlg
(PID.TID 0000.0001) //     12 fhifec----bb------------abddlnnrsiddddeedddddddddddddfhjkkiijfd----aaddc---aaddccdegijlnkihjihggggdddddccdddddddddfihggggggkkjkkjjodddeffhifec--
(PID.TID 0000.0001) //     11 a----------a-----------abbdddgmmqsjeeededddeddeddddddeeghkllnkjecacddeffcacddeffgggikmlkihgeddecbaddaaaaaaaaabbbddeghhgilolvxomnllkefgdaa-------
(PID.TID 0000.0001) //     10 ----dcaa-aaaaaaaabbdebcbddfghhjjmmjjjkprohiijkhhgggghhhggjjlommnnmijijklnmijijklnmmllkjggeddddaaaaaaaddaaabdddddefgill..zqjkigddddddbaa-----dcaa
(PID.TID 0000.0001) //      9 adddkhefjfdddddhfdekpy..xpnnpponxxyzz........zyz+y...zzxxwsmmmmmkjjjmmmkkjjjmmmkkhgggfdeeeddddddddddddddddddddeeghpy...yxnhgedddddddbaaaadddkhef
(PID.TID 0000.0001) //      8 gnlmkmopvtlkklv..............yx.............................zrppmljjjgffmljjjgfffggeeddddddddefhhigghffeddffilloxy....zyxoihgggdddddddddgnlmkmop
(PID.TID 0000.0001) //      7 .................................................................xsrvshf.xsrvshfeeeeeeeeeeffgjmmnpvwvvwy++yyyyxxz......ywttqmigghggfflyz........
(PID.TID 0000.0001) //      6 ...............................................................yyyyyyupnyyyyyupnkihhggghvyyy+.........................+yyyyyyyyxxxyy............
(PID.TID 0000.0001) //      5 ................................................................xxyyxxyyxxyyxxyyyyyzz.................................++zz..zyxy................
(PID.TID 0000.0001) //      4 ................................................................................................................................................
(PID.TID 0000.0001) //      3 ................................................................................................................................................
(PID.TID 0000.0001) //      2 ................................................................................................................................................
(PID.TID 0000.0001) //      1 ................................................................................................................................................
(PID.TID 0000.0001) //      0 ................................................................................................................................................
(PID.TID 0000.0001) //     -1 ................................................................................................................................................
(PID.TID 0000.0001) //     -2 ................................................................................................................................................
(PID.TID 0000.0001) //     -3 +zsnovwy++...+zzzzzz++++...............................................................................................................++zsnovwy
(PID.TID 0000.0001) // =======================================================
(PID.TID 0000.0001) // END OF FIELD                                          =
(PID.TID 0000.0001) // =======================================================
(PID.TID 0000.0001) 
(PID.TID 0000.0001) // =======================================================
(PID.TID 0000.0001) // Field Surface reference r-position (ini_depths)
(PID.TID 0000.0001) // CMIN =          1.000000000000000E+32
(PID.TID 0000.0001) // CMAX =         -1.000000000000000E+32
(PID.TID 0000.0001) // CINT =          0.000000000000000E+00
(PID.TID 0000.0001) // SYMBOLS (CMIN->CMAX): -abcdefghijklmnopqrstuvwxyz+
(PID.TID 0000.0001) //                  0.0: .
(PID.TID 0000.0001) // RANGE I (Lo:Hi:Step):(    -3:   132:     1)
(PID.TID 0000.0001) // RANGE J (Lo:Hi:Step):(    68:    -3:    -1)
(PID.TID 0000.0001) // RANGE K (Lo:Hi:Step):(   1:   1:   1)
(PID.TID 0000.0001) // =======================================================
(PID.TID 0000.0001) // =======================================================
(PID.TID 0000.0001) // END OF FIELD                                          =
(PID.TID 0000.0001) // =======================================================
(PID.TID 0000.0001) 
(PID.TID 0000.0001) // =======================================================
(PID.TID 0000.0001) // Field Model R_low (ini_masks_etc)
(PID.TID 0000.0001) // CMIN =         -5.200000000000000E+03
(PID.TID 0000.0001) // CMAX =         -5.000000000000000E+01
(PID.TID 0000.0001) // CINT =          1.907407407407407E+02
(PID.TID 0000.0001) // SYMBOLS (CMIN->CMAX): -abcdefghijklmnopqrstuvwxyz+
(PID.TID 0000.0001) //                  0.0: .
(PID.TID 0000.0001) // RANGE I (Lo:Hi:Step):(    -3:   132:     1)
(PID.TID 0000.0001) // RANGE J (Lo:Hi:Step):(    68:    -3:    -1)
(PID.TID 0000.0001) // RANGE K (Lo:Hi:Step):(   1:   1:   1)
(PID.TID 0000.0001) // =======================================================
(PID.TID 0000.0001) K =   1
(PID.TID 0000.0001) //                I=6       I=16      I=26      I=36      I=46      I=56      I=66      I=68      I=78      I=88      I=98      I=108     I=118     I=128
(PID.TID 0000.0001) // |--J--|321012345|789012345|789012345|789012345|789012345|789012345|789012345|781234567|901234567|901234567|901234567|901234567|901234567|901234567|9012
(PID.TID 0000.0001) //     68 ................................................................................................................................................
(PID.TID 0000.0001) //     67 ................................................................................................................................................
(PID.TID 0000.0001) //     66 ................................................................................................................................................
(PID.TID 0000.0001) //     65 ................................................................................................................................................
(PID.TID 0000.0001) //     64 ................................................................................................................................................
(PID.TID 0000.0001) //     63 ................................................................................................................................................
(PID.TID 0000.0001) //     62 ................................................................................................................................................
(PID.TID 0000.0001) //     61 +zsnovwy++...+zzzzzz++++...............................................................................................................++zsnovwy
(PID.TID 0000.0001) //     60 +zrmmnot.....+zzzzzzzzz+.........................................................................................y....................zz+zrmmnot
(PID.TID 0000.0001) //     59 omjjklnoqyz++zyzzzzzzzz.........................................................................................yxwvvyy..............zzromjjklno
(PID.TID 0000.0001) //     58 sponmlmoqwzyzzzzzzzz++.............................................................................................wrtxz............zytssponmlmo
(PID.TID 0000.0001) //     57 rqmmmkmmz............................................................................................................tvz............xwurrqmmmkmm
(PID.TID 0000.0001) //     56 vqjmmuyz..............................................................................................................yx........yyyyy..zvqjmmuyz
(PID.TID 0000.0001) //     55 xwrrux..............................................................++......++.......................................+yuu.....wonrwyzzzyxwrrux..
(PID.TID 0000.0001) //     54 wyz++............................................................ymnz+++.ymnz+++......................................wmkkr..qmmotsqooruwyz++...
(PID.TID 0000.0001) //     53 v...++.................................................zzzz...omsjjjjm++sjjjjm+++.....zjghl...........................zojjjlkkloronmpvxtv...++..
(PID.TID 0000.0001) //     52 ....++................................................+xxyy...ggijjljjmpijjljjmpz.++tdeffhjm............................zmjiijlqnljlqtpo....++..
(PID.TID 0000.0001) //     51 .......................................................xvvx..ddfdhjsqmpqdhjsqmpqdbcddddefghjlz..........................zylgghhikkjhigqy........
(PID.TID 0000.0001) //     50 z+.....................................................+uutw---aaaa-----aaa------aaaabddefghjnq..........................zvogdefglkgfddpz+......
(PID.TID 0000.0001) //     49 dg+....................................................roqja--------------------------abddefhmmx..........................+whddehlnjdddddg+.....
(PID.TID 0000.0001) //     48 oxy.....................................................va------a-------a--------------addefgjlx.....................++nj+wfddfgjnmkgeddoxy.....
(PID.TID 0000.0001) //     47 t......................................................a------a----------------------aaaddefgiks...................+qfbaaahebddgoqnhfa--t.......
(PID.TID 0000.0001) //     46 v.....................................................z------d--a-d-----a-d----------------abddg..................lfdda-----bdhksrqhdacev.......
(PID.TID 0000.0001) //     45 g.....................................................b-----fb---cdhfe---cdhfe-------------aadddk................oeaaddb-abcehlnmkgcabjdg.......
(PID.TID 0000.0001) //     44 .................................................+.vgs-----ci----aaa-----aaa--------------bddddefu..............xf--ddb---adhlkihjd-bfgi........
(PID.TID 0000.0001) //     43 ................................................+ywfdng-------------a-a-----a-a--------abddddddefhr............+vd--ab----afkjgccda-deju........
(PID.TID 0000.0001) //     42 ...............................................+zveddhna-------------dde-----ddedbba----addddddeffh............+vd-------acgifaa-aaadis.........
(PID.TID 0000.0001) //     41 .........................op.....................qdeeddn---a--a--------dd------ddheddea---abddddeefgizw.......t+++n-------adifd-----dem..........
(PID.TID 0000.0001) //     40 .........................ljn.................zom----ddil---aac---fkic-df-fkic-dfdddgja------ddddegghjl.......tmv.uq------adifa--bbadfs..........
(PID.TID 0000.0001) //     39 ........................zhijj.....ppq.......rjmxa---bdfiea----acaigefghfaigefghf---cda-------adefggijjl......jkrvt.vnu--adejfa-aadehjm..........
(PID.TID 0000.0001) //     38 .......................nhggghr...llmn+.....vngt.g--aadfib---------ea---a--ea---aa---------bbbaddefggjhkjiv.....wphiggrna-agifaa---cljn..........
(PID.TID 0000.0001) //     37 ....................wttlheefes..+jjkmu+....oggx.x---adig-----addd-------d----------------bbbdddddeefghjkiggh...ojizsjssjbadfhca----bdj..........
(PID.TID 0000.0001) //     36 ......................qghfdddpq.+hiipoz....rrt...--adiige----gdefd-----cfd-----caebb-dd--abbdddddeeghikjhghhjy.vt......mgddddhfbaa-adh..........
(PID.TID 0000.0001) //     35 ......................adgieddkos+gghksy....tt....--gdimmnheeddcdfd---a--fd---a--ackfbaabddddddddefffgghkjihhjqt.........+sfeddfhgfefhdd+........
(PID.TID 0000.0001) //     34 l+owgp+..............laddfiighojeefght........wjlldfdelfedhkigddddd--a--ddd--a---aehdddddddddddddeeggghjjjjlqolm..........zjfedgkhfegdddl+owgp+.
(PID.TID 0000.0001) //     33 caaddgn.............jcadddfkggoedddged.........zxxifefkeddhnmgddddd-----ddd-------afddeddddddddddefgghijjkmqomkv...........zfeefkkhhddcccaaddgn.
(PID.TID 0000.0001) //     32 fdaddfl............kdbadddeiigjddddfddd.........yy..zomsrqjqpjdefeda----feda-----aaadddddddddddddeeefghjjjjkqnr..............kjfeffddfgifdaddfl.
(PID.TID 0000.0001) //     31 heddddes..........vgdddsggfhiidaaddfdddd........xxv.....t.srroljiea-----iea------faaaadddddddddddeeefijiihhhiii................nea--adgkheddddes
(PID.TID 0000.0001) //     30 hdde--di..........rgdfehqiggjtaaaddfaaa-fx...zxxxxw++....mj.spjhdaad---adaad---adge-aaaadefddddddeefikiggggfffe................zd---adhlhdde--di
(PID.TID 0000.0001) //     29 heda--aey.........rigfffhyjjjlaaadddaaaa-ailnmxxxx++++.+..qoqqklfdddfffdfdddfffdfhka-acbddifdefgggfikjheeggfeddl...............vb---aehlheda--ae
(PID.TID 0000.0001) //     36 ......................qghfdddpq.+hiipoz....rrt...--adiige----gdefd-----cfd-----caebb-dd--abbdddddeeghikjhghhjy.vt......mgddddhfbaa-adh..........
(PID.TID 0000.0001) //     35 ......................adgieddkos+gghksy....tt....--gdimmnheeddcdfd---a--fd---a--ackfbaabddddddddefffgghkjihhjqt.........+sfeddfhgfefhdd+........
(PID.TID 0000.0001) //     34 l+owgp+..............laddfiighojeefght........wjlldfdelfedhkigddddd--a--ddd--a---aehdddddddddddddeeggghjjjjlqolm..........zjfedgkhfegdddl+owgp+.
(PID.TID 0000.0001) //     33 caaddgn.............jcadddfkggoedddged.........zxxifefkeddhnmgddddd-----ddd-------afddeddddddddddefgghijjkmqomkv...........zfeefkkhhddcccaaddgn.
(PID.TID 0000.0001) //     32 fdaddfl............kdbadddeiigjddddfddd.........yy..zomsrqjqpjdefeda----feda-----aaadddddddddddddeeefghjjjjkqnr..............kjfeffddfgifdaddfl.
(PID.TID 0000.0001) //     31 heddddes..........vgdddsggfhiidaaddfdddd........xxv.....t.srroljiea-----iea------faaaadddddddddddeeefijiihhhiii................nea--adgkheddddes
(PID.TID 0000.0001) //     30 hdde--di..........rgdfehqiggjtaaaddfaaa-fx...zxxxxw++....mj.spjhdaad---adaad---adge-aaaadefddddddeefikiggggfffe................zd---adhlhdde--di
(PID.TID 0000.0001) //     29 heda--aey.........rigfffhyjjjlaaadddaaaa-ailnmxxxx++++.+..qoqqklfdddfffdfdddfffdfhka-acbddifdefgggfikjheeggfeddl...............vb---aehlheda--ae
(PID.TID 0000.0001) //     28 hfd---afy.........+kj.ddfojkhfa-addg--d-c-ddd-jx++.....rjggpmigqkllopidckllopidc-dlaaadddeffffggghijkigefghgfddd..............+ec---ddjjhfd---af
(PID.TID 0000.0001) //     27 heda--ag..........zm..edfxikiddaaafla-a----dedr+........vvgklgftkllpqqkckllpqqkc--dddefornkfffgghhjkjhgfhhgeddddi.............rdda--dfjkheda--ag
(PID.TID 0000.0001) //     26 heda---h..........r+..ddjiimieddaadl-a-----dsw+..........yqnlkkjnlnvsqibnlnvsqib--ddddiffkkjgfghhhjkjhgfeefedddgfd............+fdb--afilheda---h
(PID.TID 0000.0001) //     25 jdd--bkn.........mmz.ndfffimlfddddejda---abfw.............zpvsrsnlljrs--nlljrs---addddddedggggghhijkiggfffffeeggdde...........nfea--adfljdd--bkn
(PID.TID 0000.0001) //     24 fd---gngu.......zkjx.fddddegkiffdddjd---aajm..............zppsotngdhsp--ngdhsp----bdddddddefhihijjljjhghggggghjedff..........pheb---ddgkfd---gng
(PID.TID 0000.0001) //     23 fedackddm.......tfejsd---degikiffeefdccfba-m..............+gmtmomidiqi--midiqi-----dddddifeefgghijklmkkjiiihihgffff........zoledcaabdfhkfedackdd
(PID.TID 0000.0001) //     22 heddhaadjz.....uqbcnnfabdfddffjifffolnljda--+.............zdntmnmngiq---mngiq------ddddddeeeeefghijlmkjihhhihggfeev........ohgfqihdddfilheddhaad
(PID.TID 0000.0001) //     21 fefgebabgq.....jpabrofdfiddddfilihjleeonb-abn....++.......sdluotmqjll---mqjll------dddddddddeffghhikmjjihhhihggfef+.......shgfflgiddfhkkfefgebab
(PID.TID 0000.0001) //     20 gggdb--addw.zgegi-allghkdddddegllhhgfeddc--kl+vhddnw......dccotrr.tnd--ar.tnd--aa--------ddddffffhhjmjiiiiihgggfff.......xfbbbdddffggjkjgggdb--a
(PID.TID 0000.0001) //     19 jjfda--addddgkefdadkknkfd-adeegnkihhhgfddddddda------v...kddadsvv..via-bv..via-bb--d------abddddeegjmjgfgijihggffp......zfa-aaaddddfgklljjfda--a
(PID.TID 0000.0001) //     18 hgddca-dddaagndddflnkjheb-adefglllllkjhfeeddddba-----df..gddbdfux..olifdx..olifdba-ddd------adddeehkmihfefijihgggy......h------abddfhkljhgddca-d
(PID.TID 0000.0001) //     17 ggffdddddaabca-dgnomnmjfcbddfgikkklklljhgggedddddddddddn+jddbddr..yxxxqk..yxxxqk--addd------adddfghkljigeeefgikii+...++p---aaa--adddgjkjggffdddd
(PID.TID 0000.0001) //     16 lifeddfedccb--aglnpqpnmgddfpunjjjjjjjklkjihgffeddddeefdjqgdcbde..tsojdaa.tsojdaa-aadddbaaaaadddefgjlljhgeeeeffhjk....++j---------addfgkllifeddfe
(PID.TID 0000.0001) //     15 lljhgghgdcddb-dfdefffffedeou.xnmjjgghijjjkkjjhgggghikjgggldddekzxxvvga--xxvvga--aaaabcddddddddeghiklkihfedddddefi....+zsqmb-afaaabddffhjlljhgghg
(PID.TID 0000.0001) //     14 jnonnkhikkjjhfc-bfmlhfeedddglxytmjdefhhhhhiihgfedghikljifeddfhjxyydba--ayydba--aaabcdddefhfddefhjmljhhfedddddddfgj..+zzsqpnnqjigifffdefhjnonnkhi
(PID.TID 0000.0001) //     13 ijnomnlgddfeeb---gjfeddddddhgmsrjgddeefgggggedddddefgjlmghgfjgkusaa---aasaa---aabcddghiiijmljihimljhhgeddddaadddfjlllkjihggjkmwvjddfddefijnomnlg
(PID.TID 0000.0001) //     12 fhifec----bb------------abddlnnrsiddddeedddddddddddddfhjkkiijfd----aaddc---aaddccdegijlnkihjihggggdddddccdddddddddfihggggggkkjkkjjodddeffhifec--
(PID.TID 0000.0001) //     11 a----------a-----------abbdddgmmqsjeeededddeddeddddddeeghkllnkjecacddeffcacddeffgggikmlkihgeddedbaddaaaaaaaaabbbddeghhgilolvxomnllkefgdaa-------
(PID.TID 0000.0001) //     10 ----dcaa-aaaaaaaabbdebcbddfghhjjmmjjjkprohiijkhhgggghhhggjjlommnnmijijklnmijijklnmmllkjggeddddaaaaaaaddaaabdddddefgill..zqjkigddddddbaa-----dcaa
(PID.TID 0000.0001) //      9 adddkhefjfdddddhfdekpy..xpnnpponxxyzz........zyz+y...zzxxwsmmmmmkjjjmmmkkjjjmmmkkhgggfdeeeddddddddddddddddddddeeghpy...yxnhgedddddddbaaaadddkhef
(PID.TID 0000.0001) //      8 gnlmkmopvtlkklv..............yx.............................zrppmljjjgffmljjjgfffggeeddddddddefhhigghffeddffilloxy....zyxoihgggdddddddddgnlmkmop
(PID.TID 0000.0001) //      7 .................................................................xsrvshf.xsrvshfeeeeeeeeeeffgjmmnpvwvvwy++yyyyxxz......ywttqmigghggfflyz........
(PID.TID 0000.0001) //      6 ...............................................................yyyyyyupnyyyyyupnkihhggghvyyy+.........................+yyyyyyyyxxxyy............
(PID.TID 0000.0001) //      5 ................................................................xxyyxxyyxxyyxxyyyyyzz.................................++zz..zyxy................
(PID.TID 0000.0001) //      4 ................................................................................................................................................
(PID.TID 0000.0001) //      3 ................................................................................................................................................
(PID.TID 0000.0001) //      2 ................................................................................................................................................
(PID.TID 0000.0001) //      1 ................................................................................................................................................
(PID.TID 0000.0001) //      0 ................................................................................................................................................
(PID.TID 0000.0001) //     -1 ................................................................................................................................................
(PID.TID 0000.0001) //     -2 ................................................................................................................................................
(PID.TID 0000.0001) //     -3 ................................................................................................................................................
(PID.TID 0000.0001) // =======================================================
(PID.TID 0000.0001) // END OF FIELD                                          =
(PID.TID 0000.0001) // =======================================================
(PID.TID 0000.0001) 
(PID.TID 0000.0001) // =======================================================
(PID.TID 0000.0001) // Field Model Ro_surf (ini_masks_etc)
(PID.TID 0000.0001) // CMIN =          1.000000000000000E+32
(PID.TID 0000.0001) // CMAX =         -1.000000000000000E+32
(PID.TID 0000.0001) // CINT =          0.000000000000000E+00
(PID.TID 0000.0001) // SYMBOLS (CMIN->CMAX): -abcdefghijklmnopqrstuvwxyz+
(PID.TID 0000.0001) //                  0.0: .
(PID.TID 0000.0001) // RANGE I (Lo:Hi:Step):(    -3:   132:     1)
(PID.TID 0000.0001) // RANGE J (Lo:Hi:Step):(    68:    -3:    -1)
(PID.TID 0000.0001) // RANGE K (Lo:Hi:Step):(   1:   1:   1)
(PID.TID 0000.0001) // =======================================================
(PID.TID 0000.0001) // =======================================================
(PID.TID 0000.0001) // END OF FIELD                                          =
(PID.TID 0000.0001) // =======================================================
(PID.TID 0000.0001) 
(PID.TID 0000.0001) // =======================================================
(PID.TID 0000.0001) // Field hFacC at iteration          0
(PID.TID 0000.0001) // CMIN =          1.000000000000000E+00
(PID.TID 0000.0001) // CMAX =          1.000000000000000E+00
(PID.TID 0000.0001) // CINT =          0.000000000000000E+00
(PID.TID 0000.0001) // SYMBOLS (CMIN->CMAX): -abcdefghijklmnopqrstuvwxyz+
(PID.TID 0000.0001) //                  0.0: .
(PID.TID 0000.0001) // RANGE I (Lo:Hi:Step):(    -3:   132:     1)
(PID.TID 0000.0001) // RANGE J (Lo:Hi:Step):(    68:    -3:    -1)
(PID.TID 0000.0001) // RANGE K (Lo:Hi:Step):(   1:   1:   1)
(PID.TID 0000.0001) // =======================================================
(PID.TID 0000.0001) // =======================================================
(PID.TID 0000.0001) // END OF FIELD                                          =
(PID.TID 0000.0001) // =======================================================
(PID.TID 0000.0001) 
(PID.TID 0000.0001) // =======================================================
(PID.TID 0000.0001) // Field hFacW at iteration          0
(PID.TID 0000.0001) // CMIN =          1.000000000000000E+00
(PID.TID 0000.0001) // CMAX =          1.000000000000000E+00
(PID.TID 0000.0001) // CINT =          0.000000000000000E+00
(PID.TID 0000.0001) // SYMBOLS (CMIN->CMAX): -abcdefghijklmnopqrstuvwxyz+
(PID.TID 0000.0001) //                  0.0: .
(PID.TID 0000.0001) // RANGE I (Lo:Hi:Step):(    -3:   132:     1)
(PID.TID 0000.0001) // RANGE J (Lo:Hi:Step):(    68:    -3:    -1)
(PID.TID 0000.0001) // RANGE K (Lo:Hi:Step):(   1:   1:   1)
(PID.TID 0000.0001) // =======================================================
(PID.TID 0000.0001) // =======================================================
(PID.TID 0000.0001) // END OF FIELD                                          =
(PID.TID 0000.0001) // =======================================================
(PID.TID 0000.0001) 
(PID.TID 0000.0001) // =======================================================
(PID.TID 0000.0001) // Field hFacS at iteration          0
(PID.TID 0000.0001) // CMIN =          1.000000000000000E+00
(PID.TID 0000.0001) // CMAX =          1.000000000000000E+00
(PID.TID 0000.0001) // CINT =          0.000000000000000E+00
(PID.TID 0000.0001) // SYMBOLS (CMIN->CMAX): -abcdefghijklmnopqrstuvwxyz+
(PID.TID 0000.0001) //                  0.0: .
(PID.TID 0000.0001) // RANGE I (Lo:Hi:Step):(    -3:   132:     1)
(PID.TID 0000.0001) // RANGE J (Lo:Hi:Step):(    68:    -3:    -1)
(PID.TID 0000.0001) // RANGE K (Lo:Hi:Step):(   1:   1:   1)
(PID.TID 0000.0001) // =======================================================
(PID.TID 0000.0001) // =======================================================
(PID.TID 0000.0001) // END OF FIELD                                          =
(PID.TID 0000.0001) // =======================================================
(PID.TID 0000.0001) 
(PID.TID 0000.0001) 
(PID.TID 0000.0001) // =======================================================
(PID.TID 0000.0001) // Calendar configuration >>> START <<<
(PID.TID 0000.0001) // =======================================================
(PID.TID 0000.0001) 
(PID.TID 0000.0001) modelstart = /* Start time of the model integration [s] */
(PID.TID 0000.0001)                 0.000000000000000E+00
(PID.TID 0000.0001)     ;
(PID.TID 0000.0001) modelend  = /* End time of the model integration [s] */
(PID.TID 0000.0001)                 3.600000000000000E+03
(PID.TID 0000.0001)     ;
(PID.TID 0000.0001) modelStep = /* Time interval for a model forward step [s] */
(PID.TID 0000.0001)                 9.000000000000000E+02
(PID.TID 0000.0001)     ;
(PID.TID 0000.0001) usingGregorianCalendar= /* Calendar Type: Gregorian Calendar */
(PID.TID 0000.0001)                   T
(PID.TID 0000.0001)     ;
(PID.TID 0000.0001) usingJulianCalendar = /* Calendar Type: Julian Calendar */
(PID.TID 0000.0001)                   F
(PID.TID 0000.0001)     ;
(PID.TID 0000.0001) usingNoLeapYearCal  = /* Calendar Type: without Leap Year */
(PID.TID 0000.0001)                   F
(PID.TID 0000.0001)     ;
(PID.TID 0000.0001) usingModelCalendar  = /* Calendar Type: Model Calendar */
(PID.TID 0000.0001)                   F
(PID.TID 0000.0001)     ;
(PID.TID 0000.0001) modelStartDate YYYYMMDD = /* Model start date YYYY-MM-DD */
(PID.TID 0000.0001)                19920101
(PID.TID 0000.0001)     ;
(PID.TID 0000.0001)   modelStartDate HHMMSS = /* Model start date HH-MM-SS  */
(PID.TID 0000.0001)                       0
(PID.TID 0000.0001)     ;
(PID.TID 0000.0001) modelEndDate   YYYYMMDD = /* Model end date YYYY-MM-DD */
(PID.TID 0000.0001)                19920101
(PID.TID 0000.0001)     ;
(PID.TID 0000.0001)   modelEndDate   HHMMSS = /* Model end date HH-MM-SS  */
(PID.TID 0000.0001)                   10000
(PID.TID 0000.0001)     ;
(PID.TID 0000.0001) intyears = /* Number of calendar years affected by the integration */
(PID.TID 0000.0001)                       1
(PID.TID 0000.0001)     ;
(PID.TID 0000.0001) intmonths= /* Number of calendar months affected by the integration */
(PID.TID 0000.0001)                       1
(PID.TID 0000.0001)     ;
(PID.TID 0000.0001) intdays = /* Number of calendar days affected by the integration */
(PID.TID 0000.0001)                       1
(PID.TID 0000.0001)     ;
(PID.TID 0000.0001) modelIter0 = /* Base timestep number  */
(PID.TID 0000.0001)                       0
(PID.TID 0000.0001)     ;
(PID.TID 0000.0001) modelIterEnd = /* Final timestep number  */
(PID.TID 0000.0001)                       4
(PID.TID 0000.0001)     ;
(PID.TID 0000.0001) modelIntSteps= /* Number of model timesteps  */
(PID.TID 0000.0001)                       4
(PID.TID 0000.0001)     ;
(PID.TID 0000.0001) 
(PID.TID 0000.0001) // =======================================================
(PID.TID 0000.0001) // Calendar configuration  >>> END <<<
(PID.TID 0000.0001) // =======================================================
(PID.TID 0000.0001) 
(PID.TID 0000.0001) GAD_INIT_FIXED: GAD_OlMinSize=  1  0  1
(PID.TID 0000.0001) 
(PID.TID 0000.0001) // ===================================
(PID.TID 0000.0001) // GAD parameters :
(PID.TID 0000.0001) // ===================================
(PID.TID 0000.0001) tempAdvScheme =   /* Temp. Horiz.Advection scheme selector */
(PID.TID 0000.0001)                       2
(PID.TID 0000.0001)     ;
(PID.TID 0000.0001) tempVertAdvScheme =   /* Temp. Vert. Advection scheme selector */
(PID.TID 0000.0001)                       2
(PID.TID 0000.0001)     ;
(PID.TID 0000.0001) tempMultiDimAdvec =   /* use Muti-Dim Advec method for Temp */
(PID.TID 0000.0001)                   F
(PID.TID 0000.0001)     ;
(PID.TID 0000.0001) tempSOM_Advection = /* use 2nd Order Moment Advection for Temp */
(PID.TID 0000.0001)                   F
(PID.TID 0000.0001)     ;
(PID.TID 0000.0001) AdamsBashforthGt = /* apply Adams-Bashforth extrapolation on Gt */
(PID.TID 0000.0001)                   T
(PID.TID 0000.0001)     ;
(PID.TID 0000.0001) AdamsBashforth_T = /* apply Adams-Bashforth extrapolation on Temp */
(PID.TID 0000.0001)                   F
(PID.TID 0000.0001)     ;
(PID.TID 0000.0001) saltAdvScheme =   /* Salt. Horiz.advection scheme selector */
(PID.TID 0000.0001)                       2
(PID.TID 0000.0001)     ;
(PID.TID 0000.0001) saltVertAdvScheme =   /* Salt. Vert. Advection scheme selector */
(PID.TID 0000.0001)                       2
(PID.TID 0000.0001)     ;
(PID.TID 0000.0001) saltMultiDimAdvec =   /* use Muti-Dim Advec method for Salt */
(PID.TID 0000.0001)                   F
(PID.TID 0000.0001)     ;
(PID.TID 0000.0001) saltSOM_Advection = /* use 2nd Order Moment Advection for Salt */
(PID.TID 0000.0001)                   F
(PID.TID 0000.0001)     ;
(PID.TID 0000.0001) AdamsBashforthGs = /* apply Adams-Bashforth extrapolation on Gs */
(PID.TID 0000.0001)                   T
(PID.TID 0000.0001)     ;
(PID.TID 0000.0001) AdamsBashforth_S = /* apply Adams-Bashforth extrapolation on Salt */
(PID.TID 0000.0001)                   F
(PID.TID 0000.0001)     ;
(PID.TID 0000.0001) // ===================================
(PID.TID 0000.0001) 
(PID.TID 0000.0001) // =======================================================
(PID.TID 0000.0001) // External forcing (EXF) configuration >>> START <<<
(PID.TID 0000.0001) // =======================================================
(PID.TID 0000.0001) 
(PID.TID 0000.0001)  EXF general parameters:
(PID.TID 0000.0001) 
(PID.TID 0000.0001) exf_iprec = /* exf file precision */
(PID.TID 0000.0001)                      32
(PID.TID 0000.0001)     ;
(PID.TID 0000.0001) useExfYearlyFields = /* add extension _YEAR to input file names */
(PID.TID 0000.0001)                   F
(PID.TID 0000.0001)     ;
(PID.TID 0000.0001) twoDigitYear = /* use 2-digit year extension */
(PID.TID 0000.0001)                   F
(PID.TID 0000.0001)     ;
(PID.TID 0000.0001) useExfCheckRange = /* check for fields range */
(PID.TID 0000.0001)                   F
(PID.TID 0000.0001)     ;
(PID.TID 0000.0001) exf_output_interp = /* output directly interpolation result */
(PID.TID 0000.0001)                   F
(PID.TID 0000.0001)     ;
(PID.TID 0000.0001) exf_debugLev = /* select EXF-debug printing level */
(PID.TID 0000.0001)                       5
(PID.TID 0000.0001)     ;
(PID.TID 0000.0001) exf_monFreq  = /* EXF monitor frequency [ s ] */
(PID.TID 0000.0001)                 1.000000000000000E+00
(PID.TID 0000.0001)     ;
(PID.TID 0000.0001) repeatPeriod = /* period for cycling forcing dataset [ s ] */
(PID.TID 0000.0001)                 0.000000000000000E+00
(PID.TID 0000.0001)     ;
(PID.TID 0000.0001) climTempFreeze= /* Minimum climatological temperature [deg.C] */
(PID.TID 0000.0001)                -1.900000000000000E+00
(PID.TID 0000.0001)     ;
(PID.TID 0000.0001) windStressMax = /* Maximum absolute windstress [ Pa ] */
(PID.TID 0000.0001)                 2.000000000000000E+00
(PID.TID 0000.0001)     ;
(PID.TID 0000.0001) stressIsOnCgrid = /* set u,v_stress on Arakawa C-grid */
(PID.TID 0000.0001)                   F
(PID.TID 0000.0001)     ;
(PID.TID 0000.0001) rotateStressOnAgrid = /* rotate u,v_stress on Arakawa A-grid */
(PID.TID 0000.0001)                   F
(PID.TID 0000.0001)     ;
(PID.TID 0000.0001) cen2kel = /* conversion of deg. Centigrade to Kelvin [K] */
(PID.TID 0000.0001)                 2.731500000000000E+02
(PID.TID 0000.0001)     ;
(PID.TID 0000.0001) gravity_mks= /* gravitational acceleration [m/s^2] */
(PID.TID 0000.0001)                 9.810000000000000E+00
(PID.TID 0000.0001)     ;
(PID.TID 0000.0001) atmrho =  /* mean atmospheric density [kg/m^3] */
(PID.TID 0000.0001)                 1.200000000000000E+00
(PID.TID 0000.0001)     ;
(PID.TID 0000.0001) atmcp =  /* mean atmospheric specific heat [J/kg/K] */
(PID.TID 0000.0001)                 1.005000000000000E+03
(PID.TID 0000.0001)     ;
(PID.TID 0000.0001) flamb =  /* latent heat of evaporation [J/kg] */
(PID.TID 0000.0001)                 2.500000000000000E+06
(PID.TID 0000.0001)     ;
(PID.TID 0000.0001) flami =  /* latent heat of pure-ice melting [J/kg] */
(PID.TID 0000.0001)                 3.340000000000000E+05
(PID.TID 0000.0001)     ;
(PID.TID 0000.0001) cvapor_fac = /* const. for Saturation calculation [?] */
(PID.TID 0000.0001)                 6.403800000000000E+05
(PID.TID 0000.0001)     ;
(PID.TID 0000.0001) cvapor_exp = /* const. for Saturation calculation [?] */
(PID.TID 0000.0001)                 5.107400000000000E+03
(PID.TID 0000.0001)     ;
(PID.TID 0000.0001) cvapor_fac_ice= /* const. for Saturation calculation [?] */
(PID.TID 0000.0001)                 1.163780000000000E+07
(PID.TID 0000.0001)     ;
(PID.TID 0000.0001) cvapor_exp_ice= /* const. for Saturation calculation [?] */
(PID.TID 0000.0001)                 5.897800000000000E+03
(PID.TID 0000.0001)     ;
(PID.TID 0000.0001) humid_fac = /* humidity coef. in virtual temp. [(kg/kg)^-1] */
(PID.TID 0000.0001)                 6.060000000000000E-01
(PID.TID 0000.0001)     ;
(PID.TID 0000.0001) gamma_blk = /* adiabatic lapse rate [?] */
(PID.TID 0000.0001)                 1.000000000000000E-02
(PID.TID 0000.0001)     ;
(PID.TID 0000.0001) saltsat = /* reduction of Qsat over salty water [-] */
(PID.TID 0000.0001)                 9.800000000000000E-01
(PID.TID 0000.0001)     ;
(PID.TID 0000.0001) noNegativeEvap = /* prevent negative Evaporation */
(PID.TID 0000.0001)                   F
(PID.TID 0000.0001)     ;
(PID.TID 0000.0001) sstExtrapol = /* extrapolation coeff from lev. 1 & 2 to surf [-] */
(PID.TID 0000.0001)                 0.000000000000000E+00
(PID.TID 0000.0001)     ;
(PID.TID 0000.0001) cDrag_1 = /* coef used in drag calculation [?] */
(PID.TID 0000.0001)                 2.700000000000000E-03
(PID.TID 0000.0001)     ;
(PID.TID 0000.0001) cDrag_2 = /* coef used in drag calculation [?] */
(PID.TID 0000.0001)                 1.420000000000000E-04
(PID.TID 0000.0001)     ;
(PID.TID 0000.0001) cDrag_3 = /* coef used in drag calculation [?] */
(PID.TID 0000.0001)                 7.640000000000000E-05
(PID.TID 0000.0001)     ;
(PID.TID 0000.0001) cStanton_1 = /* coef used in Stanton number calculation [?] */
(PID.TID 0000.0001)                 3.270000000000000E-02
(PID.TID 0000.0001)     ;
(PID.TID 0000.0001) cStanton_2 = /* coef used in Stanton number calculation [?] */
(PID.TID 0000.0001)                 1.800000000000000E-02
(PID.TID 0000.0001)     ;
(PID.TID 0000.0001) cDalton = /* coef used in Dalton number calculation [?] */
(PID.TID 0000.0001)                 3.460000000000000E-02
(PID.TID 0000.0001)     ;
(PID.TID 0000.0001) exf_scal_BulkCdn= /* Drag coefficient scaling factor [-] */
(PID.TID 0000.0001)                 1.000000000000000E+00
(PID.TID 0000.0001)     ;
(PID.TID 0000.0001) zolmin = /* minimum stability parameter [?] */
(PID.TID 0000.0001)                -1.000000000000000E+02
(PID.TID 0000.0001)     ;
(PID.TID 0000.0001) psim_fac = /* coef used in turbulent fluxes calculation [-] */
(PID.TID 0000.0001)                 5.000000000000000E+00
(PID.TID 0000.0001)     ;
(PID.TID 0000.0001) zref =  /* reference height [ m ] */
(PID.TID 0000.0001)                 1.000000000000000E+01
(PID.TID 0000.0001)     ;
(PID.TID 0000.0001) hu =  /* height of mean wind [ m ] */
(PID.TID 0000.0001)                 1.000000000000000E+01
(PID.TID 0000.0001)     ;
(PID.TID 0000.0001) ht =  /* height of mean temperature [ m ] */
(PID.TID 0000.0001)                 2.000000000000000E+00
(PID.TID 0000.0001)     ;
(PID.TID 0000.0001) hq =  /* height of mean spec.humidity [ m ] */
(PID.TID 0000.0001)                 2.000000000000000E+00
(PID.TID 0000.0001)     ;
(PID.TID 0000.0001) uMin = /* minimum wind speed [m/s] */
(PID.TID 0000.0001)                 5.000000000000000E-01
(PID.TID 0000.0001)     ;
(PID.TID 0000.0001) useStabilityFct_overIce= /* transfert Coeffs over sea-ice depend on stability */
(PID.TID 0000.0001)                   F
(PID.TID 0000.0001)     ;
(PID.TID 0000.0001) exf_iceCd = /* drag coefficient over sea-ice (fixed) [-] */
(PID.TID 0000.0001)                 1.630000000000000E-03
(PID.TID 0000.0001)     ;
(PID.TID 0000.0001) exf_iceCe = /* transfert coeff. over sea-ice, for Evap (fixed) [-] */
(PID.TID 0000.0001)                 1.630000000000000E-03
(PID.TID 0000.0001)     ;
(PID.TID 0000.0001) exf_iceCh = /* transfert coeff. over sea-ice, Sens.Heat.(fixed)[-] */
(PID.TID 0000.0001)                 1.630000000000000E-03
(PID.TID 0000.0001)     ;
(PID.TID 0000.0001) exf_albedo =  /* Sea-water albedo [-] */
(PID.TID 0000.0001)                 1.000000000000000E-01
(PID.TID 0000.0001)     ;
(PID.TID 0000.0001) useExfZenAlbedo = /* Sea-water albedo varies with zenith angle */
(PID.TID 0000.0001)                   T
(PID.TID 0000.0001)     ;
(PID.TID 0000.0001) select_ZenAlbedo = /* Sea-water albedo computation method */
(PID.TID 0000.0001)                       1
(PID.TID 0000.0001)     ;
(PID.TID 0000.0001) useExfZenIncoming = /* compute incoming solar radiation */
(PID.TID 0000.0001)                   T
(PID.TID 0000.0001)     ;
(PID.TID 0000.0001) ocean_emissivity = /* longwave ocean-surface emissivity [-] */
(PID.TID 0000.0001)                 9.700000000000000E-01
(PID.TID 0000.0001)     ;
(PID.TID 0000.0001) ice_emissivity = /* longwave seaice emissivity [-] */
(PID.TID 0000.0001)                 9.500000000000000E-01
(PID.TID 0000.0001)     ;
(PID.TID 0000.0001) snow_emissivity = /* longwave snow  emissivity [-] */
(PID.TID 0000.0001)                 9.500000000000000E-01
(PID.TID 0000.0001)     ;
(PID.TID 0000.0001) 
(PID.TID 0000.0001)  EXF main CPP flags:
(PID.TID 0000.0001) 
(PID.TID 0000.0001) // USE_EXF_INTERPOLATION:              defined
(PID.TID 0000.0001) // ALLOW_ATM_TEMP:                     defined
(PID.TID 0000.0001) // ALLOW_ATM_WIND (useAtmWind):        defined
(PID.TID 0000.0001) // ALLOW_DOWNWARD_RADIATION:           defined
(PID.TID 0000.0001) // ALLOW_BULKFORMULAE:                 defined
(PID.TID 0000.0001) 
(PID.TID 0000.0001)    Zonal wind forcing period is                        -12.
(PID.TID 0000.0001)    Zonal wind forcing is read from file:
(PID.TID 0000.0001)    >> EIG_u10m_2000 <<
(PID.TID 0000.0001)    interpolate "uwind" (method= 12 ):
(PID.TID 0000.0001)    lon0=-178.50000, nlon=   120, lon_inc= 3.0000000
(PID.TID 0000.0001)    lat0= -88.50000, nlat=    60, lat_inc= 3.0000000
(PID.TID 0000.0001) 
(PID.TID 0000.0001)    Meridional wind forcing period is                   -12.
(PID.TID 0000.0001)    Meridional wind forcing is read from file:
(PID.TID 0000.0001)    >> EIG_v10m_2000 <<
(PID.TID 0000.0001)    interpolate "vwind" (method= 22 ):
(PID.TID 0000.0001)    lon0=-178.50000, nlon=   120, lon_inc= 3.0000000
(PID.TID 0000.0001)    lat0= -88.50000, nlat=    60, lat_inc= 3.0000000
(PID.TID 0000.0001)     Interp. U & V comp. together: uvInterp_wind =    T
(PID.TID 0000.0001) 
(PID.TID 0000.0001)    Atmospheric temperature period is                   -12.
(PID.TID 0000.0001)    Atmospheric temperature is read from file:
(PID.TID 0000.0001)    >> EIG_tmp2m_degC_plus_ECCO_v4r1_ctrl_2000 <<
(PID.TID 0000.0001)    interpolate "atemp" (method=  1 ):
(PID.TID 0000.0001)    lon0=-178.50000, nlon=   120, lon_inc= 3.0000000
(PID.TID 0000.0001)    lat0= -88.50000, nlat=    60, lat_inc= 3.0000000
(PID.TID 0000.0001) 
(PID.TID 0000.0001)    Atmospheric specific humidity period is             -12.
(PID.TID 0000.0001)    Atmospheric specific humidity is read from file:
(PID.TID 0000.0001)    >> EIG_spfh2m_plus_ECCO_v4r1_ctrl_2000 <<
(PID.TID 0000.0001)    interpolate "aqh" (method=  1 ):
(PID.TID 0000.0001)    lon0=-178.50000, nlon=   120, lon_inc= 3.0000000
(PID.TID 0000.0001)    lat0= -88.50000, nlat=    60, lat_inc= 3.0000000
(PID.TID 0000.0001) 
(PID.TID 0000.0001) // ALLOW_READ_TURBFLUXES:          NOT defined
(PID.TID 0000.0001) // EXF_READ_EVAP:                  NOT defined
(PID.TID 0000.0001) 
(PID.TID 0000.0001)    Precipitation data period is                        -12.
(PID.TID 0000.0001)    Precipitation data is read from file:
(PID.TID 0000.0001)    >> EIG_rain_plus_ECCO_v4r1_ctrl_2000 <<
(PID.TID 0000.0001)    interpolate "precip" (method=  1 ):
(PID.TID 0000.0001)    lon0=-178.50000, nlon=   120, lon_inc= 3.0000000
(PID.TID 0000.0001)    lat0= -88.50000, nlat=    60, lat_inc= 3.0000000
(PID.TID 0000.0001) 
(PID.TID 0000.0001) // ALLOW_RUNOFF:                       defined
(PID.TID 0000.0001)    Runoff data period is                               -12.
(PID.TID 0000.0001)    Runoff data is read from file:
(PID.TID 0000.0001)    >> runoff-2d-Fekete-1deg-mon-V4-SMOOTH.bin <<
(PID.TID 0000.0001)    interpolate "runoff" (method=  1 ):
(PID.TID 0000.0001)    lon0=-178.50000, nlon=   120, lon_inc= 3.0000000
(PID.TID 0000.0001)    lat0= -88.50000, nlat=    60, lat_inc= 3.0000000
(PID.TID 0000.0001) 
(PID.TID 0000.0001) // ALLOW_RUNOFTEMP:                NOT defined
(PID.TID 0000.0001) // ALLOW_SALTFLX:                  NOT defined
(PID.TID 0000.0001) 
(PID.TID 0000.0001)    Downward shortwave flux period is                   -12.
(PID.TID 0000.0001)    Downward shortwave flux is read from file:
(PID.TID 0000.0001)    >> EIG_dsw_plus_ECCO_v4r1_ctrl_2000 <<
(PID.TID 0000.0001)    interpolate "swdown" (method=  1 ):
(PID.TID 0000.0001)    lon0=-178.50000, nlon=   120, lon_inc= 3.0000000
(PID.TID 0000.0001)    lat0= -88.50000, nlat=    60, lat_inc= 3.0000000
(PID.TID 0000.0001) 
(PID.TID 0000.0001)    Downward longwave flux period is                    -12.
(PID.TID 0000.0001)    Downward longwave flux is read from file:
(PID.TID 0000.0001)    >> EIG_dlw_plus_ECCO_v4r1_ctrl_2000 <<
(PID.TID 0000.0001)    interpolate "lwdown" (method=  1 ):
(PID.TID 0000.0001)    lon0=-178.50000, nlon=   120, lon_inc= 3.0000000
(PID.TID 0000.0001)    lat0= -88.50000, nlat=    60, lat_inc= 3.0000000
(PID.TID 0000.0001) 
(PID.TID 0000.0001)    Atmospheric pCO2 forcing period is               -12.
(PID.TID 0000.0001)    Atmospheric pCO2 forcing is read from file:
(PID.TID 0000.0001)    >>  apCO2_2000  <<
(PID.TID 0000.0001) 
(PID.TID 0000.0001) // =======================================================
(PID.TID 0000.0001) // External forcing (EXF) climatology configuration :
(PID.TID 0000.0001) // =======================================================
(PID.TID 0000.0001) 
(PID.TID 0000.0001) // ALLOW_CLIMSST_RELAXATION:           defined
(PID.TID 0000.0001)    climsst relaxation is NOT used
(PID.TID 0000.0001) 
(PID.TID 0000.0001) // ALLOW_CLIMSSS_RELAXATION:           defined
(PID.TID 0000.0001)    climsss relaxation is NOT used
(PID.TID 0000.0001) 
(PID.TID 0000.0001) // =======================================================
(PID.TID 0000.0001) // External forcing (EXF) configuration  >>> END <<<
(PID.TID 0000.0001) // =======================================================
(PID.TID 0000.0001) 
(PID.TID 0000.0001) PTRACERS_INIT_FIXED: updated GAD_OlMinSize=  2  0  1
(PID.TID 0000.0001) // =======================================================
(PID.TID 0000.0001) // Darwin loading parameters
(PID.TID 0000.0001) // =======================================================
(PID.TID 0000.0001) // =======================================================
(PID.TID 0000.0001) // Seaice configuration (SEAICE_PARM01) >>> START <<<
(PID.TID 0000.0001) // =======================================================
(PID.TID 0000.0001) 
(PID.TID 0000.0001)    Seaice time stepping configuration   > START <
(PID.TID 0000.0001)    ----------------------------------------------
(PID.TID 0000.0001) SEAICE_deltaTtherm= /* thermodynamic timestep */
(PID.TID 0000.0001)                 9.000000000000000E+02
(PID.TID 0000.0001)     ;
(PID.TID 0000.0001) SEAICE_deltaTdyn  = /* dynamic timestep */
(PID.TID 0000.0001)                 9.000000000000000E+02
(PID.TID 0000.0001)     ;
(PID.TID 0000.0001) SEAICE_deltaTevp  = /* EVP timestep */
(PID.TID 0000.0001)                 6.000000000000000E+01
(PID.TID 0000.0001)     ;
(PID.TID 0000.0001) SEAICEuseBDF2  = /* use backw. differencing for mom. eq. */
(PID.TID 0000.0001)                   F
(PID.TID 0000.0001)     ;
(PID.TID 0000.0001) SEAICErestoreUnderIce  = /* restore T and S under ice */
(PID.TID 0000.0001)                   T
(PID.TID 0000.0001)     ;
(PID.TID 0000.0001) 
(PID.TID 0000.0001)    Seaice dynamics configuration   > START <
(PID.TID 0000.0001)    ------------------------------------------
(PID.TID 0000.0001) SEAICEuseDYNAMICS = /* use dynamics */
(PID.TID 0000.0001)                   T
(PID.TID 0000.0001)     ;
(PID.TID 0000.0001) model grid type   = /* type of sea ice model grid */
(PID.TID 0000.0001)               'C-GRID'
(PID.TID 0000.0001)     ;
(PID.TID 0000.0001) SEAICEuseStrImpCpl = /* use strongly implicit coupling */
(PID.TID 0000.0001)                   F
(PID.TID 0000.0001)     ;
(PID.TID 0000.0001) SEAICEusePicardAsPrecon = /* Picard as preconditioner */
(PID.TID 0000.0001)                   F
(PID.TID 0000.0001)     ;
(PID.TID 0000.0001) SEAICEuseLSR      = /* use default Picard-LSR solver */
(PID.TID 0000.0001)                   F
(PID.TID 0000.0001)     ;
(PID.TID 0000.0001) SEAICEuseKrylov   = /* use Picard-Krylov solver */
(PID.TID 0000.0001)                   F
(PID.TID 0000.0001)     ;
(PID.TID 0000.0001) SEAICEuseEVP      = /* use EVP solver rather than LSR */
(PID.TID 0000.0001)                   T
(PID.TID 0000.0001)     ;
(PID.TID 0000.0001) SEAICEuseJFNK     = /* use JFNK solver */
(PID.TID 0000.0001)                   F
(PID.TID 0000.0001)     ;
(PID.TID 0000.0001) SEAICEuseFREEDRIFT = /* use free drift solution */
(PID.TID 0000.0001)                   F
(PID.TID 0000.0001)     ;
(PID.TID 0000.0001) OCEAN_drag        = /* air-ocean drag coefficient */
(PID.TID 0000.0001)                 1.000000000000000E-03
(PID.TID 0000.0001)     ;
(PID.TID 0000.0001) SEAICE_drag       = /* air-ice drag coefficient */
(PID.TID 0000.0001)                 2.000000000000000E-03
(PID.TID 0000.0001)     ;
(PID.TID 0000.0001) SEAICE_drag_south      = /* Southern Ocean SEAICE_drag */
(PID.TID 0000.0001)                 2.000000000000000E-03
(PID.TID 0000.0001)     ;
(PID.TID 0000.0001) SEAICE_waterDrag  = /* water-ice drag * density */
(PID.TID 0000.0001)                 5.500000000000000E+00
(PID.TID 0000.0001)     ;
(PID.TID 0000.0001) SEAICE_waterDrag_south = /* Southern Ocean waterDrag */
(PID.TID 0000.0001)                 5.500000000000000E+00
(PID.TID 0000.0001)     ;
(PID.TID 0000.0001) SEAICEuseTilt     = /* include surface tilt in dyna. */
(PID.TID 0000.0001)                   F
(PID.TID 0000.0001)     ;
(PID.TID 0000.0001) SEAICEuseTEM      = /* use truncated ellipse rheology */
(PID.TID 0000.0001)                   F
(PID.TID 0000.0001)     ;
(PID.TID 0000.0001) SEAICE_strength   = /* sea-ice strength Pstar */
(PID.TID 0000.0001)                 2.750000000000000E+04
(PID.TID 0000.0001)     ;
(PID.TID 0000.0001) SEAICE_cStar      = /* sea-ice strength parameter cStar */
(PID.TID 0000.0001)                 2.000000000000000E+01
(PID.TID 0000.0001)     ;
(PID.TID 0000.0001) SEAICEpressReplFac= /* press. replacement method factor */
(PID.TID 0000.0001)                 1.000000000000000E+00
(PID.TID 0000.0001)     ;
(PID.TID 0000.0001) SEAICE_tensilFac  = /* sea-ice tensile strength factor */
(PID.TID 0000.0001)                 0.000000000000000E+00
(PID.TID 0000.0001)     ;
(PID.TID 0000.0001) SEAICE_tensilDepth= /* crit. depth for tensile strength */
(PID.TID 0000.0001)                 0.000000000000000E+00
(PID.TID 0000.0001)     ;
(PID.TID 0000.0001) SEAICEpresH0   = /* sea-ice strength Heff threshold */
(PID.TID 0000.0001)                 2.000000000000000E+00
(PID.TID 0000.0001)     ;
(PID.TID 0000.0001) SEAICEpresPow0 = /* exponent for Heff<SEAICEpresH0 */
(PID.TID 0000.0001)                       1
(PID.TID 0000.0001)     ;
(PID.TID 0000.0001) SEAICEpresPow1 = /* exponent for Heff>SEAICEpresH0 */
(PID.TID 0000.0001)                       3
(PID.TID 0000.0001)     ;
(PID.TID 0000.0001) SEAICEetaZmethod = /* method computing eta at Z-point */
(PID.TID 0000.0001)                       0
(PID.TID 0000.0001)     ;
(PID.TID 0000.0001) SEAICE_zetaMin    = /* lower bound for viscosity */
(PID.TID 0000.0001)                 0.000000000000000E+00
(PID.TID 0000.0001)     ;
(PID.TID 0000.0001) SEAICE_eccen    = /* elliptical yield curve eccent */
(PID.TID 0000.0001)                 2.000000000000000E+00
(PID.TID 0000.0001)     ;
(PID.TID 0000.0001) SEAICEstressFactor    = /* wind stress scaling factor */
(PID.TID 0000.0001)                 1.000000000000000E+00
(PID.TID 0000.0001)     ;
(PID.TID 0000.0001) SEAICE_airTurnAngle    = /* air-ice turning angle */
(PID.TID 0000.0001)                 0.000000000000000E+00
(PID.TID 0000.0001)     ;
(PID.TID 0000.0001) SEAICE_waterTurnAngle  = /* ice-water turning angle */
(PID.TID 0000.0001)                 0.000000000000000E+00
(PID.TID 0000.0001)     ;
(PID.TID 0000.0001) SEAICEuseMetricTerms = /* use metric terms */
(PID.TID 0000.0001)                   T
(PID.TID 0000.0001)     ;
(PID.TID 0000.0001) SEAICE_no_slip    = /* no slip boundary conditions */
(PID.TID 0000.0001)                   F
(PID.TID 0000.0001)     ;
(PID.TID 0000.0001) SEAICE_2ndOrderBC = /* 2nd order no slip boundary conditions */
(PID.TID 0000.0001)                   F
(PID.TID 0000.0001)     ;
(PID.TID 0000.0001) SEAICE_clipVeloctities = /* impose max. vels. */
(PID.TID 0000.0001)                   T
(PID.TID 0000.0001)     ;
(PID.TID 0000.0001) useHB87stressCoupling  = /* altern. ice-ocean stress */
(PID.TID 0000.0001)                   F
(PID.TID 0000.0001)     ;
(PID.TID 0000.0001) SEAICEscaleSurfStress  = /* scale atm. and ocean-surface stress with AREA */
(PID.TID 0000.0001)                   F
(PID.TID 0000.0001)     ;
(PID.TID 0000.0001) SEAICE_maskRHS    = /* mask RHS of solver */
(PID.TID 0000.0001)                   F
(PID.TID 0000.0001)     ;
(PID.TID 0000.0001) SEAICEaddSnowMass = /* add snow mass to seaiceMassC/U/V */
(PID.TID 0000.0001)                   F
(PID.TID 0000.0001)     ;
(PID.TID 0000.0001) SEAICE_elasticParm= /* EVP elastic parameter */
(PID.TID 0000.0001)                 3.333333333333333E-01
(PID.TID 0000.0001)     ;
(PID.TID 0000.0001) SEAICE_evpTauRelax= /* EVP relaxation timescale */
(PID.TID 0000.0001)                 3.000000000000000E+02
(PID.TID 0000.0001)     ;
(PID.TID 0000.0001) SEAICE_evpDampC   = /* EVP damping parameter */
(PID.TID 0000.0001)                -1.000000000000000E+00
(PID.TID 0000.0001)     ;
(PID.TID 0000.0001) SEAICEuseEVPstar  = /* use EVP* solver */
(PID.TID 0000.0001)                   F
(PID.TID 0000.0001)     ;
(PID.TID 0000.0001) SEAICEuseEVPrev   = /* use "revisited EVP" solver */
(PID.TID 0000.0001)                   F
(PID.TID 0000.0001)     ;
(PID.TID 0000.0001) SEAICE_evpAlpha   = /* EVP* parameter*/
(PID.TID 0000.0001)                 1.000000000000000E+01
(PID.TID 0000.0001)     ;
(PID.TID 0000.0001) SEAICE_evpBeta    = /* EVP*  parameter */
(PID.TID 0000.0001)                 1.500000000000000E+01
(PID.TID 0000.0001)     ;
(PID.TID 0000.0001) SEAICEaEVPcoeff   = /* adaptive EVP parameter*/
(PID.TID 0000.0001)                 1.234567000000000E+05
(PID.TID 0000.0001)     ;
(PID.TID 0000.0001) SEAICEaEVPcStar   = /* adaptive EVP parameter*/
(PID.TID 0000.0001)                 1.234567000000000E+05
(PID.TID 0000.0001)     ;
(PID.TID 0000.0001) SEAICEaEVPalphaMin= /* adaptive EVP parameter*/
(PID.TID 0000.0001)                 1.234567000000000E+05
(PID.TID 0000.0001)     ;
(PID.TID 0000.0001) SEAICEnEVPstarSteps = /* num. of EVP* steps */
(PID.TID 0000.0001)               123456789
(PID.TID 0000.0001)     ;
(PID.TID 0000.0001) SEAICEuseEVPpickup= /* start EVP solver with EVP pickup*/
(PID.TID 0000.0001)                   T
(PID.TID 0000.0001)     ;
(PID.TID 0000.0001) 
(PID.TID 0000.0001)    Seaice advection diffusion config,   > START <
(PID.TID 0000.0001)    -----------------------------------------------
(PID.TID 0000.0001) SEAICEmomAdvection = /* advect sea ice momentum */
(PID.TID 0000.0001)                   F
(PID.TID 0000.0001)     ;
(PID.TID 0000.0001) SEAICEadvHeff = /* advect effective ice thickness */
(PID.TID 0000.0001)                   T
(PID.TID 0000.0001)     ;
(PID.TID 0000.0001) SEAICEadvArea = /* advect fractional ice area */
(PID.TID 0000.0001)                   T
(PID.TID 0000.0001)     ;
(PID.TID 0000.0001) SEAICEadvSnow = /* advect snow layer together with ice */
(PID.TID 0000.0001)                   T
(PID.TID 0000.0001)     ;
(PID.TID 0000.0001) SEAICEadvScheme   = /* advection scheme for ice */
(PID.TID 0000.0001)                      30
(PID.TID 0000.0001)     ;
(PID.TID 0000.0001) SEAICEadvSchArea   = /* advection scheme for area */
(PID.TID 0000.0001)                      30
(PID.TID 0000.0001)     ;
(PID.TID 0000.0001) SEAICEadvSchHeff   = /* advection scheme for thickness */
(PID.TID 0000.0001)                      30
(PID.TID 0000.0001)     ;
(PID.TID 0000.0001) SEAICEadvSchSnow   = /* advection scheme for snow */
(PID.TID 0000.0001)                      30
(PID.TID 0000.0001)     ;
(PID.TID 0000.0001) SEAICEdiffKhArea   = /* diffusivity (m^2/s) for area */
(PID.TID 0000.0001)                 4.000000000000000E+02
(PID.TID 0000.0001)     ;
(PID.TID 0000.0001) SEAICEdiffKhHeff   = /* diffusivity (m^2/s) for heff */
(PID.TID 0000.0001)                 4.000000000000000E+02
(PID.TID 0000.0001)     ;
(PID.TID 0000.0001) SEAICEdiffKhSnow   = /* diffusivity (m^2/s) for snow */
(PID.TID 0000.0001)                 4.000000000000000E+02
(PID.TID 0000.0001)     ;
(PID.TID 0000.0001) DIFF1             = /* parameter used in advect.F [m/s] */
(PID.TID 0000.0001)                 0.000000000000000E+00
(PID.TID 0000.0001)     ;
(PID.TID 0000.0001) 
(PID.TID 0000.0001)    Seaice thermodynamics configuration   > START <
(PID.TID 0000.0001)    -----------------------------------------------
(PID.TID 0000.0001) SEAICE_rhoIce     = /* density of sea ice (kg/m3) */
(PID.TID 0000.0001)                 9.100000000000000E+02
(PID.TID 0000.0001)     ;
(PID.TID 0000.0001) SEAICE_rhoSnow    = /* density of snow (kg/m3) */
(PID.TID 0000.0001)                 3.300000000000000E+02
(PID.TID 0000.0001)     ;
(PID.TID 0000.0001) SEAICE_rhoAir     = /* density of air (kg/m3) */
(PID.TID 0000.0001)                 1.200000000000000E+00
(PID.TID 0000.0001)     ;
(PID.TID 0000.0001) usePW79thermodynamics  = /* default 0-layer TD */
(PID.TID 0000.0001)                   T
(PID.TID 0000.0001)     ;
(PID.TID 0000.0001) SEAICE_lhEvap     = /* latent heat of evaporation */
(PID.TID 0000.0001)                 2.500000000000000E+06
(PID.TID 0000.0001)     ;
(PID.TID 0000.0001) SEAICE_lhFusion   = /* latent heat of fusion */
(PID.TID 0000.0001)                 3.340000000000000E+05
(PID.TID 0000.0001)     ;
(PID.TID 0000.0001) SEAICE_mcPheePiston = /* turbulent flux "piston velocity" a la McPhee (m/s) */
(PID.TID 0000.0001)                 3.858024691358025E-05
(PID.TID 0000.0001)     ;
(PID.TID 0000.0001) SEAICE_mcPheeTaper = /* tapering of turbulent flux (0.< <1.) for AREA=1. */
(PID.TID 0000.0001)                 0.000000000000000E+00
(PID.TID 0000.0001)     ;
(PID.TID 0000.0001) SEAICE_mcPheeStepFunc = /* replace linear tapering with step funct. */
(PID.TID 0000.0001)                   F
(PID.TID 0000.0001)     ;
(PID.TID 0000.0001) SEAICE_frazilFrac = /* frazil (T<tempFrz) to seaice conversion rate (0.< <1.) */
(PID.TID 0000.0001)                 1.000000000000000E+00
(PID.TID 0000.0001)     ;
(PID.TID 0000.0001) SEAICE_tempFrz0   = /* freezing temp. of sea water (intercept) */
(PID.TID 0000.0001)                -1.960000000000000E+00
(PID.TID 0000.0001)     ;
(PID.TID 0000.0001) SEAICE_dTempFrz_dS= /* freezing temp. of sea water (slope) */
(PID.TID 0000.0001)                 0.000000000000000E+00
(PID.TID 0000.0001)     ;
(PID.TID 0000.0001) SEAICE_growMeltByConv  = /* grow,melt by vert. conv. */
(PID.TID 0000.0001)                   F
(PID.TID 0000.0001)     ;
(PID.TID 0000.0001) SEAICE_doOpenWaterGrowth = /* grow by open water */
(PID.TID 0000.0001)                   T
(PID.TID 0000.0001)     ;
(PID.TID 0000.0001) SEAICE_doOpenWaterMelt = /* melt by open water */
(PID.TID 0000.0001)                   F
(PID.TID 0000.0001)     ;
(PID.TID 0000.0001) SEAICE_areaGainFormula = /* ice cover gain formula (1,2)*/
(PID.TID 0000.0001)                       1
(PID.TID 0000.0001)     1=from growth by ATM
(PID.TID 0000.0001)     2=from predicted growth by ATM
(PID.TID 0000.0001)     ;
(PID.TID 0000.0001) SEAICE_areaLossFormula = /* ice cover loss formula (1,2)*/
(PID.TID 0000.0001)                       2
(PID.TID 0000.0001)     1=from all but only melt conributions by ATM and OCN
(PID.TID 0000.0001)     2=from net melt-grow>0 by ATM and OCN
(PID.TID 0000.0001)     3=from predicted melt by ATM
(PID.TID 0000.0001)     ;
(PID.TID 0000.0001) HO                = /* nominal thickness of new ice */
(PID.TID 0000.0001)                 5.000000000000000E-01
(PID.TID 0000.0001)     ;
(PID.TID 0000.0001) HO_south               = /* Southern Ocean HO */
(PID.TID 0000.0001)                 5.000000000000000E-01
(PID.TID 0000.0001)     ;
(PID.TID 0000.0001) SEAICE_area_max        = /* set to les than 1. to mimic open leads */
(PID.TID 0000.0001)                 9.500000000000000E-01
(PID.TID 0000.0001)     ;
(PID.TID 0000.0001) SEAICE_salt0   = /* constant sea ice salinity */
(PID.TID 0000.0001)                 4.000000000000000E+00
(PID.TID 0000.0001)     ;
(PID.TID 0000.0001) SEAICE_salinityTracer = /* test SITR varia. salinity */
(PID.TID 0000.0001)                   F
(PID.TID 0000.0001)     ;
(PID.TID 0000.0001) SEAICEuseFlooding = /* turn submerged snow into ice */
(PID.TID 0000.0001)                   T
(PID.TID 0000.0001)     ;
(PID.TID 0000.0001) 
(PID.TID 0000.0001)    Seaice air-sea fluxes configuration,   > START <
(PID.TID 0000.0001)    -----------------------------------------------
(PID.TID 0000.0001) SEAICEheatConsFix  = /* accound for ocn<->seaice advect. heat flux */
(PID.TID 0000.0001)                   T
(PID.TID 0000.0001)     ;
(PID.TID 0000.0001) SEAICE_multDim    = /* number of ice categories (1 or 7) */
(PID.TID 0000.0001)                       1
(PID.TID 0000.0001)     ;
(PID.TID 0000.0001) SEAICE_PDF        = /* sea-ice distribution (-) */
(PID.TID 0000.0001)                 1.000000000000000E+00,      /* K =  1 */
(PID.TID 0000.0001)     6 @  0.000000000000000E+00              /* K =  2:  7 */
(PID.TID 0000.0001)     ;
(PID.TID 0000.0001) IMAX_TICE         = /* iterations for ice surface temp */
(PID.TID 0000.0001)                      10
(PID.TID 0000.0001)     ;
(PID.TID 0000.0001) postSolvTempIter= /* flux calculation after surf. temp iter */
(PID.TID 0000.0001)                       2
(PID.TID 0000.0001)     ;
(PID.TID 0000.0001) SEAICE_dryIceAlb  = /* winter albedo */
(PID.TID 0000.0001)                 8.400000000000000E-01
(PID.TID 0000.0001)     ;
(PID.TID 0000.0001) SEAICE_wetIceAlb  = /* summer albedo */
(PID.TID 0000.0001)                 7.800000000000000E-01
(PID.TID 0000.0001)     ;
(PID.TID 0000.0001) SEAICE_drySnowAlb = /* dry snow albedo */
(PID.TID 0000.0001)                 9.000000000000000E-01
(PID.TID 0000.0001)     ;
(PID.TID 0000.0001) SEAICE_wetSnowAlb = /* wet snow albedo */
(PID.TID 0000.0001)                 8.000000000000000E-01
(PID.TID 0000.0001)     ;
(PID.TID 0000.0001) SEAICE_dryIceAlb_south = /* Southern Ocean dryIceAlb */
(PID.TID 0000.0001)                 7.500000000000000E-01
(PID.TID 0000.0001)     ;
(PID.TID 0000.0001) SEAICE_wetIceAlb_south = /* Southern Ocean wetIceAlb */
(PID.TID 0000.0001)                 6.600000000000000E-01
(PID.TID 0000.0001)     ;
(PID.TID 0000.0001) SEAICE_drySnowAlb_south= /* Southern Ocean drySnowAlb */
(PID.TID 0000.0001)                 8.400000000000000E-01
(PID.TID 0000.0001)     ;
(PID.TID 0000.0001) SEAICE_wetSnowAlb_south= /* Southern Ocean wetSnowAlb */
(PID.TID 0000.0001)                 7.000000000000000E-01
(PID.TID 0000.0001)     ;
(PID.TID 0000.0001) SEAICE_wetAlbTemp= /* Temp (o.C) threshold for wet-albedo */
(PID.TID 0000.0001)                -1.000000000000000E-03
(PID.TID 0000.0001)     ;
(PID.TID 0000.0001) SEAICE_snow_emiss = /* snow emissivity */
(PID.TID 0000.0001)                 9.500000000000000E-01
(PID.TID 0000.0001)     ;
(PID.TID 0000.0001) SEAICE_ice_emiss = /* seaice emissivity */
(PID.TID 0000.0001)                 9.500000000000000E-01
(PID.TID 0000.0001)     ;
(PID.TID 0000.0001) SEAICE_cpAir      = /* heat capacity of air */
(PID.TID 0000.0001)                 1.005000000000000E+03
(PID.TID 0000.0001)     ;
(PID.TID 0000.0001) SEAICE_dalton     = /* constant dalton number */
(PID.TID 0000.0001)                 1.750000000000000E-03
(PID.TID 0000.0001)     ;
(PID.TID 0000.0001) SEAICE_iceConduct = /* sea-ice conductivity */
(PID.TID 0000.0001)                 2.165600000000000E+00
(PID.TID 0000.0001)     ;
(PID.TID 0000.0001) SEAICE_snowConduct= /* snow conductivity */
(PID.TID 0000.0001)                 3.100000000000000E-01
(PID.TID 0000.0001)     ;
(PID.TID 0000.0001) SEAICE_snowThick  = /* cutoff snow thickness (for albedo) */
(PID.TID 0000.0001)                 1.500000000000000E-01
(PID.TID 0000.0001)     ;
(PID.TID 0000.0001) SEAICE_shortwave  = /* penetration shortwave radiation */
(PID.TID 0000.0001)                 3.000000000000000E-01
(PID.TID 0000.0001)     ;
(PID.TID 0000.0001) useMaykutSatVapPoly = /* use Maykut Polynomial for Sat.Vap.Pr */
(PID.TID 0000.0001)                   F
(PID.TID 0000.0001)     ;
(PID.TID 0000.0001) MIN_ATEMP         = /* minimum air temperature */
(PID.TID 0000.0001)                -4.000000000000000E+01
(PID.TID 0000.0001)     ;
(PID.TID 0000.0001) MIN_LWDOWN        = /* minimum downward longwave */
(PID.TID 0000.0001)                 6.000000000000000E+01
(PID.TID 0000.0001)     ;
(PID.TID 0000.0001) MIN_TICE          = /* minimum ice temperature */
(PID.TID 0000.0001)                -4.000000000000000E+01
(PID.TID 0000.0001)     ;
(PID.TID 0000.0001) 
(PID.TID 0000.0001)    Seaice initialization and IO config.,   > START <
(PID.TID 0000.0001)    -------------------------------------------------
(PID.TID 0000.0001) SEAICE_initialHEFF= /* initial sea-ice thickness */
(PID.TID 0000.0001)                 0.000000000000000E+00
(PID.TID 0000.0001)     ;
(PID.TID 0000.0001) AreaFile = /* Initial ice concentration File */
(PID.TID 0000.0001)               'Area.0005184000'
(PID.TID 0000.0001)     ;
(PID.TID 0000.0001) HeffFile = /* Initial effective ice thickness File */
(PID.TID 0000.0001)               'Heff.0005184000'
(PID.TID 0000.0001)     ;
(PID.TID 0000.0001) HsnowFile = /* Initial snow thickness File */
(PID.TID 0000.0001)               ''
(PID.TID 0000.0001)     ;
(PID.TID 0000.0001) uIceFile = /* Initial U-ice velocity File */
(PID.TID 0000.0001)               ''
(PID.TID 0000.0001)     ;
(PID.TID 0000.0001) vIceFile = /* Initial V-ice velocity File */
(PID.TID 0000.0001)               ''
(PID.TID 0000.0001)     ;
(PID.TID 0000.0001) SEAICEwriteState  = /* write sea ice state to file */
(PID.TID 0000.0001)                   F
(PID.TID 0000.0001)     ;
(PID.TID 0000.0001) SEAICE_monFreq  = /* monitor frequency */
(PID.TID 0000.0001)                 1.000000000000000E+00
(PID.TID 0000.0001)     ;
(PID.TID 0000.0001) SEAICE_dumpFreq   = /* dump frequency */
(PID.TID 0000.0001)                 0.000000000000000E+00
(PID.TID 0000.0001)     ;
(PID.TID 0000.0001) SEAICE_taveFreq   = /* time-averaging frequency */
(PID.TID 0000.0001)                 0.000000000000000E+00
(PID.TID 0000.0001)     ;
(PID.TID 0000.0001) SEAICE_mon_stdio  = /* write monitor to std-outp */
(PID.TID 0000.0001)                   T
(PID.TID 0000.0001)     ;
(PID.TID 0000.0001) SEAICE_dump_mdsio = /* write snap-shot   using MDSIO */
(PID.TID 0000.0001)                   T
(PID.TID 0000.0001)     ;
(PID.TID 0000.0001) SEAICE_tave_mdsio = /* write TimeAverage using MDSIO */
(PID.TID 0000.0001)                   T
(PID.TID 0000.0001)     ;
(PID.TID 0000.0001) 
(PID.TID 0000.0001)    Seaice regularization numbers,   > START <
(PID.TID 0000.0001)    -----------------------------------------------
(PID.TID 0000.0001) SEAICE_deltaMin   = /* reduce singularities in Delta */
(PID.TID 0000.0001)                 1.000000000000000E-10
(PID.TID 0000.0001)     ;
(PID.TID 0000.0001) SEAICE_EPS        = /* small number */
(PID.TID 0000.0001)                 1.000000000000000E-10
(PID.TID 0000.0001)     ;
(PID.TID 0000.0001) SEAICE_EPS_SQ     = /* small number squared */
(PID.TID 0000.0001)                 1.000000000000000E-20
(PID.TID 0000.0001)     ;
(PID.TID 0000.0001) SEAICE_area_reg   = /* reduce derivative singularities */
(PID.TID 0000.0001)                 1.000000000000000E-05
(PID.TID 0000.0001)     ;
(PID.TID 0000.0001) SEAICE_hice_reg   = /* reduce derivative singularities */
(PID.TID 0000.0001)                 5.000000000000000E-02
(PID.TID 0000.0001)     ;
(PID.TID 0000.0001) SEAICE_area_floor = /* reduce derivative singularities */
(PID.TID 0000.0001)                 1.000000000000000E-05
(PID.TID 0000.0001)     ;
(PID.TID 0000.0001) 
(PID.TID 0000.0001) // =======================================================
(PID.TID 0000.0001) // Seaice configuration (SEAICE_PARM01) >>> END <<<
(PID.TID 0000.0001) // =======================================================
(PID.TID 0000.0001) 
(PID.TID 0000.0001) ------------------------------------------------------------
(PID.TID 0000.0001) DIAGNOSTICS_SET_LEVELS: done
(PID.TID 0000.0001)  Total Nb of available Diagnostics: ndiagt=   898
(PID.TID 0000.0001)  write list of available Diagnostics to file: available_diagnostics.log
(PID.TID 0000.0001) SETDIAG: Allocate  1 x  1 Levels for Diagnostic #    23 ETAN
(PID.TID 0000.0001) SETDIAG: Allocate 15 x  1 Levels for Diagnostic #    29 SALTanom
(PID.TID 0000.0001) SETDIAG: Allocate 15 x  1 Levels for Diagnostic #    26 THETA
(PID.TID 0000.0001) SETDIAG: Allocate 15 x  1 Levels for Diagnostic #   632 TRAC32
(PID.TID 0000.0001) SETDIAG: Allocate  1 x  1 Levels for Diagnostic #   756 DICTFLX
(PID.TID 0000.0001) SETDIAG: Allocate  1 x  1 Levels for Diagnostic #   757 DICOFLX
(PID.TID 0000.0001) SETDIAG: Allocate  1 x  1 Levels for Diagnostic #   758 DICCFLX
(PID.TID 0000.0001) SETDIAG: Allocate  1 x  1 Levels for Diagnostic #   760 DICPCO2
(PID.TID 0000.0001) SETDIAG: Allocate  1 x  1 Levels for Diagnostic #   761 DICPHAV
(PID.TID 0000.0001) SETDIAG: Allocate 15 x  1 Levels for Diagnostic #   229 TRAC01
(PID.TID 0000.0001) SETDIAG: Allocate 15 x  1 Levels for Diagnostic #   242 TRAC02
(PID.TID 0000.0001) SETDIAG: Allocate 15 x  1 Levels for Diagnostic #   255 TRAC03
(PID.TID 0000.0001) SETDIAG: Allocate 15 x  1 Levels for Diagnostic #   268 TRAC04
(PID.TID 0000.0001) SETDIAG: Allocate 15 x  1 Levels for Diagnostic #   281 TRAC05
(PID.TID 0000.0001) SETDIAG: Allocate 15 x  1 Levels for Diagnostic #   294 TRAC06
(PID.TID 0000.0001) SETDIAG: Allocate 15 x  1 Levels for Diagnostic #   307 TRAC07
(PID.TID 0000.0001) SETDIAG: Allocate 15 x  1 Levels for Diagnostic #   320 TRAC08
(PID.TID 0000.0001) SETDIAG: Allocate 15 x  1 Levels for Diagnostic #   333 TRAC09
(PID.TID 0000.0001) SETDIAG: Allocate 15 x  1 Levels for Diagnostic #   346 TRAC10
(PID.TID 0000.0001) SETDIAG: Allocate 15 x  1 Levels for Diagnostic #   359 TRAC11
(PID.TID 0000.0001) SETDIAG: Allocate 15 x  1 Levels for Diagnostic #   372 TRAC12
(PID.TID 0000.0001) SETDIAG: Allocate 15 x  1 Levels for Diagnostic #   385 TRAC13
(PID.TID 0000.0001) SETDIAG: Allocate 15 x  1 Levels for Diagnostic #   398 TRAC14
(PID.TID 0000.0001) SETDIAG: Allocate 15 x  1 Levels for Diagnostic #   411 TRAC15
(PID.TID 0000.0001) SETDIAG: Allocate 15 x  1 Levels for Diagnostic #   424 TRAC16
(PID.TID 0000.0001) SETDIAG: Allocate 15 x  1 Levels for Diagnostic #   437 TRAC17
(PID.TID 0000.0001) SETDIAG: Allocate 15 x  1 Levels for Diagnostic #   450 TRAC18
(PID.TID 0000.0001) SETDIAG: Allocate 15 x  1 Levels for Diagnostic #   463 TRAC19
(PID.TID 0000.0001) SETDIAG: Allocate 15 x  1 Levels for Diagnostic #   476 TRAC20
(PID.TID 0000.0001) SETDIAG: Allocate 15 x  1 Levels for Diagnostic #   489 TRAC21
(PID.TID 0000.0001) SETDIAG: Allocate 15 x  1 Levels for Diagnostic #   502 TRAC22
(PID.TID 0000.0001) SETDIAG: Allocate 15 x  1 Levels for Diagnostic #   515 TRAC23
(PID.TID 0000.0001) SETDIAG: Allocate 15 x  1 Levels for Diagnostic #   528 TRAC24
(PID.TID 0000.0001) SETDIAG: Allocate 15 x  1 Levels for Diagnostic #   541 TRAC25
(PID.TID 0000.0001) SETDIAG: Allocate 15 x  1 Levels for Diagnostic #   554 TRAC26
(PID.TID 0000.0001) SETDIAG: Allocate 15 x  1 Levels for Diagnostic #   645 TRAC33
(PID.TID 0000.0001) SETDIAG: Allocate 15 x  1 Levels for Diagnostic #   658 TRAC34
(PID.TID 0000.0001) SETDIAG: Allocate 15 x  1 Levels for Diagnostic #   671 TRAC35
(PID.TID 0000.0001) SETDIAG: Allocate 15 x  1 Levels for Diagnostic #   684 TRAC36
(PID.TID 0000.0001) SETDIAG: Allocate 15 x  1 Levels for Diagnostic #   697 TRAC37
(PID.TID 0000.0001) SETDIAG: Allocate 15 x  1 Levels for Diagnostic #   710 TRAC38
(PID.TID 0000.0001) SETDIAG: Allocate 15 x  1 Levels for Diagnostic #   723 TRAC39
(PID.TID 0000.0001) SETDIAG: Allocate 15 x  1 Levels for Diagnostic #   567 TRAC27
(PID.TID 0000.0001) SETDIAG: Allocate 15 x  1 Levels for Diagnostic #   580 TRAC28
(PID.TID 0000.0001) SETDIAG: Allocate 15 x  1 Levels for Diagnostic #   593 TRAC29
(PID.TID 0000.0001) SETDIAG: Allocate 15 x  1 Levels for Diagnostic #   606 TRAC30
(PID.TID 0000.0001) SETDIAG: Allocate 15 x  1 Levels for Diagnostic #   619 TRAC31
(PID.TID 0000.0001) SETDIAG: Allocate  1 x  1 Levels for Diagnostic #   191 EXFwspee
(PID.TID 0000.0001) SETDIAG: Allocate 15 x  1 Levels for Diagnostic #   750 PAR
(PID.TID 0000.0001) SETDIAG: Allocate 15 x  1 Levels for Diagnostic #   751 PP
(PID.TID 0000.0001) SETDIAG: Allocate  1 x  1 Levels for Diagnostic #   825 SIarea
(PID.TID 0000.0001) SETDIAG: Allocate  1 x  1 Levels for Diagnostic #   828 SIheff
(PID.TID 0000.0001) SETDIAG: Allocate  1 x  1 Levels for Diagnostic #   202 EXFapco2
(PID.TID 0000.0001) SETDIAG: Allocate  1 x  1 Levels for Diagnostic #   202 EXFapco2
(PID.TID 0000.0001) SETDIAG: Allocate  1 x  1 Levels for Diagnostic #   758 DICCFLX
(PID.TID 0000.0001) SETDIAG: Allocate  1 x  1 Levels for Diagnostic #   759 DICFGCO2
(PID.TID 0000.0001) SETDIAG: Allocate 15 x  1 Levels for Diagnostic #    39 UE_VEL_C
(PID.TID 0000.0001) SETDIAG: Allocate 15 x  1 Levels for Diagnostic #    40 VN_VEL_C
(PID.TID 0000.0001) SETDIAG: Allocate 15 x  1 Levels for Diagnostic #    32 WVEL
(PID.TID 0000.0001) SETDIAG: Allocate  1 x  1 Levels for Diagnostic #   758 DICCFLX
(PID.TID 0000.0001) SETDIAG: Allocate  1 x  1 Levels for Diagnostic #   760 DICPCO2
(PID.TID 0000.0001) SETDIAG: Allocate  1 x  1 Levels for Diagnostic #   757 DICOFLX
(PID.TID 0000.0001) SETDIAG: Allocate  1 x  1 Levels for Diagnostic #    87 oceQsw
(PID.TID 0000.0001) SETDIAG: Allocate  1 x  1 Levels for Diagnostic #    86 oceQnet
(PID.TID 0000.0001) SETDIAG: Allocate  1 x  1 Levels for Diagnostic #   191 EXFwspee
(PID.TID 0000.0001) SETDIAG: Allocate  1 x  1 Levels for Diagnostic #    93 TFLUX
(PID.TID 0000.0001) SETDIAG: Allocate  1 x  1 Levels for Diagnostic #    94 SFLUX
(PID.TID 0000.0001) SETDIAG: Allocate  1 x  1 Levels for Diagnostic #    77 MXLDEPTH
(PID.TID 0000.0001) SETDIAG: Allocate  1 x  1 Levels for Diagnostic #    84 oceFWflx
(PID.TID 0000.0001) - NOTE - SETDIAG:  Diagnostic  #    87 oceQsw   is already set
(PID.TID 0000.0001) SETDIAG: Allocate 15 x  1 Levels for Diagnostic #    45 UVELMASS
(PID.TID 0000.0001) SETDIAG: Allocate 15 x  1 Levels for Diagnostic #    46 VVELMASS
(PID.TID 0000.0001) SETDIAG: Allocate 15 x  1 Levels for Diagnostic #    47 WVELMASS
(PID.TID 0000.0001) - NOTE - SETDIAG:  Diagnostic  #   758 DICCFLX  is already set
(PID.TID 0000.0001) SETDIAG: Allocate  1 x  1 Levels for Diagnostic #   756 DICTFLX
(PID.TID 0000.0001) - NOTE - SETDIAG:  Diagnostic  #    26 THETA    is already set
(PID.TID 0000.0001) SETDIAG: Allocate 15 x  1 Levels for Diagnostic #    99 TOTTTEND
(PID.TID 0000.0001) SETDIAG: Allocate 15 x  1 Levels for Diagnostic #   111 ADVx_TH
(PID.TID 0000.0001) SETDIAG: Allocate 15 x  1 Levels for Diagnostic #   112 ADVy_TH
(PID.TID 0000.0001) SETDIAG: Allocate 15 x  1 Levels for Diagnostic #   110 ADVr_TH
(PID.TID 0000.0001) SETDIAG: Allocate 15 x  1 Levels for Diagnostic #   114 DFxE_TH
(PID.TID 0000.0001) SETDIAG: Allocate 15 x  1 Levels for Diagnostic #   115 DFyE_TH
(PID.TID 0000.0001) SETDIAG: Allocate 15 x  1 Levels for Diagnostic #   113 DFrE_TH
(PID.TID 0000.0001) SETDIAG: Allocate 15 x  1 Levels for Diagnostic #   116 DFrI_TH
(PID.TID 0000.0001) SETDIAG: Allocate 15 x  1 Levels for Diagnostic #    27 SALT
(PID.TID 0000.0001) SETDIAG: Allocate 15 x  1 Levels for Diagnostic #   100 TOTSTEND
(PID.TID 0000.0001) SETDIAG: Allocate 15 x  1 Levels for Diagnostic #   118 ADVx_SLT
(PID.TID 0000.0001) SETDIAG: Allocate 15 x  1 Levels for Diagnostic #   119 ADVy_SLT
(PID.TID 0000.0001) SETDIAG: Allocate 15 x  1 Levels for Diagnostic #   117 ADVr_SLT
(PID.TID 0000.0001) SETDIAG: Allocate 15 x  1 Levels for Diagnostic #   121 DFxE_SLT
(PID.TID 0000.0001) SETDIAG: Allocate 15 x  1 Levels for Diagnostic #   122 DFyE_SLT
(PID.TID 0000.0001) SETDIAG: Allocate 15 x  1 Levels for Diagnostic #   120 DFrE_SLT
(PID.TID 0000.0001) SETDIAG: Allocate 15 x  1 Levels for Diagnostic #   123 DFrI_SLT
(PID.TID 0000.0001) SETDIAG: Allocate 15 x  1 Levels for Diagnostic #   896 oceSPtnd
(PID.TID 0000.0001) - NOTE - SETDIAG:  Diagnostic  #   632 TRAC32   is already set
(PID.TID 0000.0001) SETDIAG: Allocate 15 x  1 Levels for Diagnostic #   639 ADVxTr32
(PID.TID 0000.0001) SETDIAG: Allocate 15 x  1 Levels for Diagnostic #   640 ADVyTr32
(PID.TID 0000.0001) SETDIAG: Allocate 15 x  1 Levels for Diagnostic #   638 ADVrTr32
(PID.TID 0000.0001) SETDIAG: Allocate 15 x  1 Levels for Diagnostic #   642 DFxETr32
(PID.TID 0000.0001) SETDIAG: Allocate 15 x  1 Levels for Diagnostic #   643 DFyETr32
(PID.TID 0000.0001) SETDIAG: Allocate 15 x  1 Levels for Diagnostic #   641 DFrETr32
(PID.TID 0000.0001) SETDIAG: Allocate 15 x  1 Levels for Diagnostic #   644 DFrITr32
(PID.TID 0000.0001) - NOTE - SETDIAG:  Diagnostic  #   684 TRAC36   is already set
(PID.TID 0000.0001) SETDIAG: Allocate 15 x  1 Levels for Diagnostic #   691 ADVxTr36
(PID.TID 0000.0001) SETDIAG: Allocate 15 x  1 Levels for Diagnostic #   692 ADVyTr36
(PID.TID 0000.0001) SETDIAG: Allocate 15 x  1 Levels for Diagnostic #   690 ADVrTr36
(PID.TID 0000.0001) SETDIAG: Allocate 15 x  1 Levels for Diagnostic #   694 DFxETr36
(PID.TID 0000.0001) SETDIAG: Allocate 15 x  1 Levels for Diagnostic #   695 DFyETr36
(PID.TID 0000.0001) SETDIAG: Allocate 15 x  1 Levels for Diagnostic #   693 DFrETr36
(PID.TID 0000.0001) SETDIAG: Allocate 15 x  1 Levels for Diagnostic #   696 DFrITr36
(PID.TID 0000.0001) - NOTE - SETDIAG:  Diagnostic  #   229 TRAC01   is already set
(PID.TID 0000.0001) SETDIAG: Allocate 15 x  1 Levels for Diagnostic #   236 ADVxTr01
(PID.TID 0000.0001) SETDIAG: Allocate 15 x  1 Levels for Diagnostic #   237 ADVyTr01
(PID.TID 0000.0001) SETDIAG: Allocate 15 x  1 Levels for Diagnostic #   235 ADVrTr01
(PID.TID 0000.0001) SETDIAG: Allocate 15 x  1 Levels for Diagnostic #   239 DFxETr01
(PID.TID 0000.0001) SETDIAG: Allocate 15 x  1 Levels for Diagnostic #   240 DFyETr01
(PID.TID 0000.0001) SETDIAG: Allocate 15 x  1 Levels for Diagnostic #   238 DFrETr01
(PID.TID 0000.0001) SETDIAG: Allocate 15 x  1 Levels for Diagnostic #   241 DFrITr01
(PID.TID 0000.0001) SETDIAG: Allocate 15 x  1 Levels for Diagnostic #    26 THETA
(PID.TID 0000.0001) SETDIAG: Allocate 15 x  1 Levels for Diagnostic #    27 SALT
(PID.TID 0000.0001) SETDIAG: Allocate 15 x  1 Levels for Diagnostic #   632 TRAC32
(PID.TID 0000.0001) SETDIAG: Allocate 15 x  1 Levels for Diagnostic #   684 TRAC36
(PID.TID 0000.0001) SETDIAG: Allocate 15 x  1 Levels for Diagnostic #   229 TRAC01
(PID.TID 0000.0001)   space allocated for all diagnostics:    1419 levels
(PID.TID 0000.0001)   set mate pointer for diag #    39  UE_VEL_C , Parms: UMR     MR , mate:    40
(PID.TID 0000.0001)   set mate pointer for diag #    40  VN_VEL_C , Parms: VMR     MR , mate:    39
(PID.TID 0000.0001)   set mate pointer for diag #    45  UVELMASS , Parms: UUr     MR , mate:    46
(PID.TID 0000.0001)   set mate pointer for diag #    46  VVELMASS , Parms: VVr     MR , mate:    45
(PID.TID 0000.0001)   set mate pointer for diag #   111  ADVx_TH  , Parms: UU      MR , mate:   112
(PID.TID 0000.0001)   set mate pointer for diag #   112  ADVy_TH  , Parms: VV      MR , mate:   111
(PID.TID 0000.0001)   set mate pointer for diag #   114  DFxE_TH  , Parms: UU      MR , mate:   115
(PID.TID 0000.0001)   set mate pointer for diag #   115  DFyE_TH  , Parms: VV      MR , mate:   114
(PID.TID 0000.0001)   set mate pointer for diag #   118  ADVx_SLT , Parms: UU      MR , mate:   119
(PID.TID 0000.0001)   set mate pointer for diag #   119  ADVy_SLT , Parms: VV      MR , mate:   118
(PID.TID 0000.0001)   set mate pointer for diag #   121  DFxE_SLT , Parms: UU      MR , mate:   122
(PID.TID 0000.0001)   set mate pointer for diag #   122  DFyE_SLT , Parms: VV      MR , mate:   121
(PID.TID 0000.0001)   set mate pointer for diag #   639  ADVxTr32 , Parms: UU      MR , mate:   640
(PID.TID 0000.0001)   set mate pointer for diag #   640  ADVyTr32 , Parms: VV      MR , mate:   639
(PID.TID 0000.0001)   set mate pointer for diag #   642  DFxETr32 , Parms: UU      MR , mate:   643
(PID.TID 0000.0001)   set mate pointer for diag #   643  DFyETr32 , Parms: VV      MR , mate:   642
(PID.TID 0000.0001)   set mate pointer for diag #   691  ADVxTr36 , Parms: UU      MR , mate:   692
(PID.TID 0000.0001)   set mate pointer for diag #   692  ADVyTr36 , Parms: VV      MR , mate:   691
(PID.TID 0000.0001)   set mate pointer for diag #   694  DFxETr36 , Parms: UU      MR , mate:   695
(PID.TID 0000.0001)   set mate pointer for diag #   695  DFyETr36 , Parms: VV      MR , mate:   694
(PID.TID 0000.0001)   set mate pointer for diag #   236  ADVxTr01 , Parms: UU      MR , mate:   237
(PID.TID 0000.0001)   set mate pointer for diag #   237  ADVyTr01 , Parms: VV      MR , mate:   236
(PID.TID 0000.0001)   set mate pointer for diag #   239  DFxETr01 , Parms: UU      MR , mate:   240
(PID.TID 0000.0001)   set mate pointer for diag #   240  DFyETr01 , Parms: VV      MR , mate:   239
(PID.TID 0000.0001) DIAGNOSTICS_SET_POINTERS: Set levels for Outp.Stream: ETAN
(PID.TID 0000.0001)  Levels:       1.
(PID.TID 0000.0001) DIAGNOSTICS_SET_POINTERS: Set levels for Outp.Stream: SALTanom
(PID.TID 0000.0001)  Levels:       1.   2.   3.   4.   5.   6.   7.   8.   9.  10.  11.  12.  13.  14.  15.
(PID.TID 0000.0001) DIAGNOSTICS_SET_POINTERS: Set levels for Outp.Stream: THETA
(PID.TID 0000.0001)  Levels:       1.   2.   3.   4.   5.   6.   7.   8.   9.  10.  11.  12.  13.  14.  15.
(PID.TID 0000.0001) DIAGNOSTICS_SET_POINTERS: Set levels for Outp.Stream: DIC
(PID.TID 0000.0001)  Levels:       1.   2.   3.   4.   5.   6.   7.   8.   9.  10.  11.  12.  13.  14.  15.
(PID.TID 0000.0001) DIAGNOSTICS_SET_POINTERS: Set levels for Outp.Stream: DICTFLX
(PID.TID 0000.0001)  Levels:       1.
(PID.TID 0000.0001) DIAGNOSTICS_SET_POINTERS: Set levels for Outp.Stream: DICOFLX
(PID.TID 0000.0001)  Levels:       1.
(PID.TID 0000.0001) DIAGNOSTICS_SET_POINTERS: Set levels for Outp.Stream: DICCFLX
(PID.TID 0000.0001)  Levels:       1.
(PID.TID 0000.0001) DIAGNOSTICS_SET_POINTERS: Set levels for Outp.Stream: DICPCO2
(PID.TID 0000.0001)  Levels:       1.
(PID.TID 0000.0001) DIAGNOSTICS_SET_POINTERS: Set levels for Outp.Stream: DICPHAV
(PID.TID 0000.0001)  Levels:       1.
(PID.TID 0000.0001) DIAGNOSTICS_SET_POINTERS: Set levels for Outp.Stream: PO4
(PID.TID 0000.0001)  Levels:       1.   2.   3.   4.   5.   6.   7.   8.   9.  10.  11.  12.  13.  14.  15.
(PID.TID 0000.0001) DIAGNOSTICS_SET_POINTERS: Set levels for Outp.Stream: NO3
(PID.TID 0000.0001)  Levels:       1.   2.   3.   4.   5.   6.   7.   8.   9.  10.  11.  12.  13.  14.  15.
(PID.TID 0000.0001) DIAGNOSTICS_SET_POINTERS: Set levels for Outp.Stream: FeT
(PID.TID 0000.0001)  Levels:       1.   2.   3.   4.   5.   6.   7.   8.   9.  10.  11.  12.  13.  14.  15.
(PID.TID 0000.0001) DIAGNOSTICS_SET_POINTERS: Set levels for Outp.Stream: SiO2
(PID.TID 0000.0001)  Levels:       1.   2.   3.   4.   5.   6.   7.   8.   9.  10.  11.  12.  13.  14.  15.
(PID.TID 0000.0001) DIAGNOSTICS_SET_POINTERS: Set levels for Outp.Stream: DOP
(PID.TID 0000.0001)  Levels:       1.   2.   3.   4.   5.   6.   7.   8.   9.  10.  11.  12.  13.  14.  15.
(PID.TID 0000.0001) DIAGNOSTICS_SET_POINTERS: Set levels for Outp.Stream: DON
(PID.TID 0000.0001)  Levels:       1.   2.   3.   4.   5.   6.   7.   8.   9.  10.  11.  12.  13.  14.  15.
(PID.TID 0000.0001) DIAGNOSTICS_SET_POINTERS: Set levels for Outp.Stream: DOFe
(PID.TID 0000.0001)  Levels:       1.   2.   3.   4.   5.   6.   7.   8.   9.  10.  11.  12.  13.  14.  15.
(PID.TID 0000.0001) DIAGNOSTICS_SET_POINTERS: Set levels for Outp.Stream: ZOO1P
(PID.TID 0000.0001)  Levels:       1.   2.   3.   4.   5.   6.   7.   8.   9.  10.  11.  12.  13.  14.  15.
(PID.TID 0000.0001) DIAGNOSTICS_SET_POINTERS: Set levels for Outp.Stream: ZOO1N
(PID.TID 0000.0001)  Levels:       1.   2.   3.   4.   5.   6.   7.   8.   9.  10.  11.  12.  13.  14.  15.
(PID.TID 0000.0001) DIAGNOSTICS_SET_POINTERS: Set levels for Outp.Stream: ZOO1Fe
(PID.TID 0000.0001)  Levels:       1.   2.   3.   4.   5.   6.   7.   8.   9.  10.  11.  12.  13.  14.  15.
(PID.TID 0000.0001) DIAGNOSTICS_SET_POINTERS: Set levels for Outp.Stream: ZOO1Si
(PID.TID 0000.0001)  Levels:       1.   2.   3.   4.   5.   6.   7.   8.   9.  10.  11.  12.  13.  14.  15.
(PID.TID 0000.0001) DIAGNOSTICS_SET_POINTERS: Set levels for Outp.Stream: ZOO2P
(PID.TID 0000.0001)  Levels:       1.   2.   3.   4.   5.   6.   7.   8.   9.  10.  11.  12.  13.  14.  15.
(PID.TID 0000.0001) DIAGNOSTICS_SET_POINTERS: Set levels for Outp.Stream: ZOO2N
(PID.TID 0000.0001)  Levels:       1.   2.   3.   4.   5.   6.   7.   8.   9.  10.  11.  12.  13.  14.  15.
(PID.TID 0000.0001) DIAGNOSTICS_SET_POINTERS: Set levels for Outp.Stream: ZOO2Fe
(PID.TID 0000.0001)  Levels:       1.   2.   3.   4.   5.   6.   7.   8.   9.  10.  11.  12.  13.  14.  15.
(PID.TID 0000.0001) DIAGNOSTICS_SET_POINTERS: Set levels for Outp.Stream: ZOO2Si
(PID.TID 0000.0001)  Levels:       1.   2.   3.   4.   5.   6.   7.   8.   9.  10.  11.  12.  13.  14.  15.
(PID.TID 0000.0001) DIAGNOSTICS_SET_POINTERS: Set levels for Outp.Stream: POP
(PID.TID 0000.0001)  Levels:       1.   2.   3.   4.   5.   6.   7.   8.   9.  10.  11.  12.  13.  14.  15.
(PID.TID 0000.0001) DIAGNOSTICS_SET_POINTERS: Set levels for Outp.Stream: PON
(PID.TID 0000.0001)  Levels:       1.   2.   3.   4.   5.   6.   7.   8.   9.  10.  11.  12.  13.  14.  15.
(PID.TID 0000.0001) DIAGNOSTICS_SET_POINTERS: Set levels for Outp.Stream: POFe
(PID.TID 0000.0001)  Levels:       1.   2.   3.   4.   5.   6.   7.   8.   9.  10.  11.  12.  13.  14.  15.
(PID.TID 0000.0001) DIAGNOSTICS_SET_POINTERS: Set levels for Outp.Stream: POSi
(PID.TID 0000.0001)  Levels:       1.   2.   3.   4.   5.   6.   7.   8.   9.  10.  11.  12.  13.  14.  15.
(PID.TID 0000.0001) DIAGNOSTICS_SET_POINTERS: Set levels for Outp.Stream: NH4
(PID.TID 0000.0001)  Levels:       1.   2.   3.   4.   5.   6.   7.   8.   9.  10.  11.  12.  13.  14.  15.
(PID.TID 0000.0001) DIAGNOSTICS_SET_POINTERS: Set levels for Outp.Stream: NO2
(PID.TID 0000.0001)  Levels:       1.   2.   3.   4.   5.   6.   7.   8.   9.  10.  11.  12.  13.  14.  15.
(PID.TID 0000.0001) DIAGNOSTICS_SET_POINTERS: Set levels for Outp.Stream: Phy01
(PID.TID 0000.0001)  Levels:       1.   2.   3.   4.   5.   6.   7.   8.   9.  10.  11.  12.  13.  14.  15.
(PID.TID 0000.0001) DIAGNOSTICS_SET_POINTERS: Set levels for Outp.Stream: Phy02
(PID.TID 0000.0001)  Levels:       1.   2.   3.   4.   5.   6.   7.   8.   9.  10.  11.  12.  13.  14.  15.
(PID.TID 0000.0001) DIAGNOSTICS_SET_POINTERS: Set levels for Outp.Stream: Phy03
(PID.TID 0000.0001)  Levels:       1.   2.   3.   4.   5.   6.   7.   8.   9.  10.  11.  12.  13.  14.  15.
(PID.TID 0000.0001) DIAGNOSTICS_SET_POINTERS: Set levels for Outp.Stream: Phy04
(PID.TID 0000.0001)  Levels:       1.   2.   3.   4.   5.   6.   7.   8.   9.  10.  11.  12.  13.  14.  15.
(PID.TID 0000.0001) DIAGNOSTICS_SET_POINTERS: Set levels for Outp.Stream: Phy05
(PID.TID 0000.0001)  Levels:       1.   2.   3.   4.   5.   6.   7.   8.   9.  10.  11.  12.  13.  14.  15.
(PID.TID 0000.0001) DIAGNOSTICS_SET_POINTERS: Set levels for Outp.Stream: DOC
(PID.TID 0000.0001)  Levels:       1.   2.   3.   4.   5.   6.   7.   8.   9.  10.  11.  12.  13.  14.  15.
(PID.TID 0000.0001) DIAGNOSTICS_SET_POINTERS: Set levels for Outp.Stream: POC
(PID.TID 0000.0001)  Levels:       1.   2.   3.   4.   5.   6.   7.   8.   9.  10.  11.  12.  13.  14.  15.
(PID.TID 0000.0001) DIAGNOSTICS_SET_POINTERS: Set levels for Outp.Stream: PIC
(PID.TID 0000.0001)  Levels:       1.   2.   3.   4.   5.   6.   7.   8.   9.  10.  11.  12.  13.  14.  15.
(PID.TID 0000.0001) DIAGNOSTICS_SET_POINTERS: Set levels for Outp.Stream: ALK
(PID.TID 0000.0001)  Levels:       1.   2.   3.   4.   5.   6.   7.   8.   9.  10.  11.  12.  13.  14.  15.
(PID.TID 0000.0001) DIAGNOSTICS_SET_POINTERS: Set levels for Outp.Stream: O2
(PID.TID 0000.0001)  Levels:       1.   2.   3.   4.   5.   6.   7.   8.   9.  10.  11.  12.  13.  14.  15.
(PID.TID 0000.0001) DIAGNOSTICS_SET_POINTERS: Set levels for Outp.Stream: ZOOC1
(PID.TID 0000.0001)  Levels:       1.   2.   3.   4.   5.   6.   7.   8.   9.  10.  11.  12.  13.  14.  15.
(PID.TID 0000.0001) DIAGNOSTICS_SET_POINTERS: Set levels for Outp.Stream: ZOOC2
(PID.TID 0000.0001)  Levels:       1.   2.   3.   4.   5.   6.   7.   8.   9.  10.  11.  12.  13.  14.  15.
(PID.TID 0000.0001) DIAGNOSTICS_SET_POINTERS: Set levels for Outp.Stream: CHL1
(PID.TID 0000.0001)  Levels:       1.   2.   3.   4.   5.   6.   7.   8.   9.  10.  11.  12.  13.  14.  15.
(PID.TID 0000.0001) DIAGNOSTICS_SET_POINTERS: Set levels for Outp.Stream: CHL2
(PID.TID 0000.0001)  Levels:       1.   2.   3.   4.   5.   6.   7.   8.   9.  10.  11.  12.  13.  14.  15.
(PID.TID 0000.0001) DIAGNOSTICS_SET_POINTERS: Set levels for Outp.Stream: CHL3
(PID.TID 0000.0001)  Levels:       1.   2.   3.   4.   5.   6.   7.   8.   9.  10.  11.  12.  13.  14.  15.
(PID.TID 0000.0001) DIAGNOSTICS_SET_POINTERS: Set levels for Outp.Stream: CHL4
(PID.TID 0000.0001)  Levels:       1.   2.   3.   4.   5.   6.   7.   8.   9.  10.  11.  12.  13.  14.  15.
(PID.TID 0000.0001) DIAGNOSTICS_SET_POINTERS: Set levels for Outp.Stream: CHL5
(PID.TID 0000.0001)  Levels:       1.   2.   3.   4.   5.   6.   7.   8.   9.  10.  11.  12.  13.  14.  15.
(PID.TID 0000.0001) DIAGNOSTICS_SET_POINTERS: Set levels for Outp.Stream: EXFwspee
(PID.TID 0000.0001)  Levels:       1.
(PID.TID 0000.0001) DIAGNOSTICS_SET_POINTERS: Set levels for Outp.Stream: PAR
(PID.TID 0000.0001)  Levels:       1.   2.   3.   4.   5.   6.   7.   8.   9.  10.  11.  12.  13.  14.  15.
(PID.TID 0000.0001) DIAGNOSTICS_SET_POINTERS: Set levels for Outp.Stream: PP
(PID.TID 0000.0001)  Levels:       1.   2.   3.   4.   5.   6.   7.   8.   9.  10.  11.  12.  13.  14.  15.
(PID.TID 0000.0001) DIAGNOSTICS_SET_POINTERS: Set levels for Outp.Stream: SIarea_month
(PID.TID 0000.0001)  Levels:       1.
(PID.TID 0000.0001) DIAGNOSTICS_SET_POINTERS: Set levels for Outp.Stream: SIheff_month
(PID.TID 0000.0001)  Levels:       1.
(PID.TID 0000.0001) DIAGNOSTICS_SET_POINTERS: Set levels for Outp.Stream: EXFapco2month
(PID.TID 0000.0001)  Levels:       1.
(PID.TID 0000.0001) DIAGNOSTICS_SET_POINTERS: Set levels for Outp.Stream: EXFapco2snap
(PID.TID 0000.0001)  Levels:       1.
(PID.TID 0000.0001) DIAGNOSTICS_SET_POINTERS: Set levels for Outp.Stream: DICCFLX3hrly
(PID.TID 0000.0001)  Levels:       1.
(PID.TID 0000.0001) DIAGNOSTICS_SET_POINTERS: Set levels for Outp.Stream: DICFGCO2
(PID.TID 0000.0001)  Levels:       1.
(PID.TID 0000.0001) DIAGNOSTICS_SET_POINTERS: Set levels for Outp.Stream: UE_VEL_C
(PID.TID 0000.0001)  Levels:       1.   2.   3.   4.   5.   6.   7.   8.   9.  10.  11.  12.  13.  14.  15.
(PID.TID 0000.0001) DIAGNOSTICS_SET_POINTERS: Set levels for Outp.Stream: VN_VEL_C
(PID.TID 0000.0001)  Levels:       1.   2.   3.   4.   5.   6.   7.   8.   9.  10.  11.  12.  13.  14.  15.
(PID.TID 0000.0001) DIAGNOSTICS_SET_POINTERS: Set levels for Outp.Stream: WVEL
(PID.TID 0000.0001)  Levels:       1.   2.   3.   4.   5.   6.   7.   8.   9.  10.  11.  12.  13.  14.  15.
(PID.TID 0000.0001) DIAGNOSTICS_SET_POINTERS: Set levels for Outp.Stream: DICCFLXmonth
(PID.TID 0000.0001)  Levels:       1.
(PID.TID 0000.0001) DIAGNOSTICS_SET_POINTERS: Set levels for Outp.Stream: DICPCO2month
(PID.TID 0000.0001)  Levels:       1.
(PID.TID 0000.0001) DIAGNOSTICS_SET_POINTERS: Set levels for Outp.Stream: DICOFLX_month
(PID.TID 0000.0001)  Levels:       1.
(PID.TID 0000.0001) DIAGNOSTICS_SET_POINTERS: Set levels for Outp.Stream: oceQswMonth
(PID.TID 0000.0001)  Levels:       1.
(PID.TID 0000.0001) DIAGNOSTICS_SET_POINTERS: Set levels for Outp.Stream: oceQnetMonth
(PID.TID 0000.0001)  Levels:       1.
(PID.TID 0000.0001) DIAGNOSTICS_SET_POINTERS: Set levels for Outp.Stream: EXFwspeeMonth
(PID.TID 0000.0001)  Levels:       1.
(PID.TID 0000.0001) DIAGNOSTICS_SET_POINTERS: Set levels for Outp.Stream: velMassDiag
(PID.TID 0000.0001)  Levels:       1.   2.   3.   4.   5.   6.   7.   8.   9.  10.  11.  12.  13.  14.  15.
(PID.TID 0000.0001) DIAGNOSTICS_SET_POINTERS: Set levels for Outp.Stream: theta_flxDiag
(PID.TID 0000.0001)  Levels:       1.   2.   3.   4.   5.   6.   7.   8.   9.  10.  11.  12.  13.  14.  15.
(PID.TID 0000.0001) DIAGNOSTICS_SET_POINTERS: Set levels for Outp.Stream: salt_flxDiag
(PID.TID 0000.0001)  Levels:       1.   2.   3.   4.   5.   6.   7.   8.   9.  10.  11.  12.  13.  14.  15.
(PID.TID 0000.0001) DIAGNOSTICS_SET_POINTERS: Set levels for Outp.Stream: dic_flxDiag
(PID.TID 0000.0001)  Levels:       1.   2.   3.   4.   5.   6.   7.   8.   9.  10.  11.  12.  13.  14.  15.
(PID.TID 0000.0001) DIAGNOSTICS_SET_POINTERS: Set levels for Outp.Stream: alk_flxDiag
(PID.TID 0000.0001)  Levels:       1.   2.   3.   4.   5.   6.   7.   8.   9.  10.  11.  12.  13.  14.  15.
(PID.TID 0000.0001) DIAGNOSTICS_SET_POINTERS: Set levels for Outp.Stream: po4_flxDiag
(PID.TID 0000.0001)  Levels:       1.   2.   3.   4.   5.   6.   7.   8.   9.  10.  11.  12.  13.  14.  15.
(PID.TID 0000.0001) DIAGNOSTICS_SET_POINTERS: Set levels for Outp.Stream: snapDiag
(PID.TID 0000.0001)  Levels:       1.   2.   3.   4.   5.   6.   7.   8.   9.  10.  11.  12.  13.  14.  15.
(PID.TID 0000.0001) DIAGNOSTICS_SET_POINTERS: done
(PID.TID 0000.0001) ------------------------------------------------------------
(PID.TID 0000.0001) DIAGSTATS_SET_REGIONS: define no region
(PID.TID 0000.0001) ------------------------------------------------------------
(PID.TID 0000.0001)   space allocated for all stats-diags:       0 levels
(PID.TID 0000.0001) DIAGSTATS_SET_POINTERS: done
(PID.TID 0000.0001) ------------------------------------------------------------
(PID.TID 0000.0001) %MON fCori_max                    =   1.4579854531444E-04
(PID.TID 0000.0001) %MON fCori_min                    =  -1.4579854531444E-04
(PID.TID 0000.0001) %MON fCori_mean                   =   2.3039296165317E-19
(PID.TID 0000.0001) %MON fCori_sd                     =   1.0312619976228E-04
(PID.TID 0000.0001) %MON fCoriG_max                   =   1.4566679669714E-04
(PID.TID 0000.0001) %MON fCoriG_min                   =  -1.4584247033981E-04
(PID.TID 0000.0001) %MON fCoriG_mean                  =  -2.2787885990593E-06
(PID.TID 0000.0001) %MON fCoriG_sd                    =   1.0310101939326E-04
(PID.TID 0000.0001) %MON fCoriCos_max                 =   1.4579854531444E-04
(PID.TID 0000.0001) %MON fCoriCos_min                 =   3.5791533929553E-06
(PID.TID 0000.0001) %MON fCoriCos_mean                =   9.2855522572229E-05
(PID.TID 0000.0001) %MON fCoriCos_sd                  =   4.4864964117307E-05
(PID.TID 0000.0001) INI_CG2D: CG2D normalisation factor =  7.0372759228205380E-05
(PID.TID 0000.0001) 
(PID.TID 0000.0001) // =======================================================
(PID.TID 0000.0001) // Model configuration
(PID.TID 0000.0001) // =======================================================
(PID.TID 0000.0001) //
(PID.TID 0000.0001) // "Physical" paramters ( PARM01 in namelist )
(PID.TID 0000.0001) //
(PID.TID 0000.0001) buoyancyRelation = /* Type of relation to get Buoyancy */
(PID.TID 0000.0001)               'OCEANIC'
(PID.TID 0000.0001)     ;
(PID.TID 0000.0001) fluidIsAir   =  /* fluid major constituent is Air */
(PID.TID 0000.0001)                   F
(PID.TID 0000.0001)     ;
(PID.TID 0000.0001) fluidIsWater =  /* fluid major constituent is Water */
(PID.TID 0000.0001)                   T
(PID.TID 0000.0001)     ;
(PID.TID 0000.0001) usingPCoords =  /* use p (or p*) vertical coordinate */
(PID.TID 0000.0001)                   F
(PID.TID 0000.0001)     ;
(PID.TID 0000.0001) usingZCoords =  /* use z (or z*) vertical coordinate */
(PID.TID 0000.0001)                   T
(PID.TID 0000.0001)     ;
(PID.TID 0000.0001) tRef =   /* Reference temperature profile ( oC or K ) */
(PID.TID 0000.0001)    15 @  2.000000000000000E+01              /* K =  1: 15 */
(PID.TID 0000.0001)     ;
(PID.TID 0000.0001) sRef =   /* Reference salinity profile ( psu ) */
(PID.TID 0000.0001)    15 @  3.500000000000000E+01              /* K =  1: 15 */
(PID.TID 0000.0001)     ;
(PID.TID 0000.0001) useStrainTensionVisc= /* Use StrainTension Form of Viscous Operator */
(PID.TID 0000.0001)                   F
(PID.TID 0000.0001)     ;
(PID.TID 0000.0001) useVariableVisc = /* Use variable horizontal viscosity */
(PID.TID 0000.0001)                   F
(PID.TID 0000.0001)     ;
(PID.TID 0000.0001) useHarmonicVisc = /* Use harmonic horizontal viscosity */
(PID.TID 0000.0001)                   T
(PID.TID 0000.0001)     ;
(PID.TID 0000.0001) useBiharmonicVisc= /* Use biharmonic horiz.  viscosity */
(PID.TID 0000.0001)                   F
(PID.TID 0000.0001)     ;
(PID.TID 0000.0001) useSmag3D = /* Use isotropic 3-D Smagorinsky viscosity */
(PID.TID 0000.0001)                   F
(PID.TID 0000.0001)     ;
(PID.TID 0000.0001) viscAh  =   /* Lateral harmonic viscosity ( m^2/s ) */
(PID.TID 0000.0001)                 2.000000000000000E+05
(PID.TID 0000.0001)     ;
(PID.TID 0000.0001) viscA4  =   /* Lateral biharmonic viscosity ( m^4/s ) */
(PID.TID 0000.0001)                 0.000000000000000E+00
(PID.TID 0000.0001)     ;
(PID.TID 0000.0001) no_slip_sides =  /* Viscous BCs: No-slip sides */
(PID.TID 0000.0001)                   T
(PID.TID 0000.0001)     ;
(PID.TID 0000.0001) sideDragFactor = /* side-drag scaling factor (non-dim) */
(PID.TID 0000.0001)                 2.000000000000000E+00
(PID.TID 0000.0001)     ;
(PID.TID 0000.0001) viscArNr = /* vertical profile of vertical viscosity ( m^2/s )*/
(PID.TID 0000.0001)    15 @  1.000000000000000E-03              /* K =  1: 15 */
(PID.TID 0000.0001)     ;
(PID.TID 0000.0001) no_slip_bottom =  /* Viscous BCs: No-slip bottom */
(PID.TID 0000.0001)                   T
(PID.TID 0000.0001)     ;
(PID.TID 0000.0001) bottomVisc_pCell = /* Partial-cell in bottom Visc. BC */
(PID.TID 0000.0001)                   F
(PID.TID 0000.0001)     ;
(PID.TID 0000.0001) bottomDragLinear = /* linear bottom-drag coefficient ( m/s ) */
(PID.TID 0000.0001)                 0.000000000000000E+00
(PID.TID 0000.0001)     ;
(PID.TID 0000.0001) bottomDragQuadratic = /* quadratic bottom-drag coefficient (-) */
(PID.TID 0000.0001)                 0.000000000000000E+00
(PID.TID 0000.0001)     ;
(PID.TID 0000.0001) selectBotDragQuadr = /* select quadratic bottom drag options */
(PID.TID 0000.0001)                      -1
(PID.TID 0000.0001)     ;
(PID.TID 0000.0001) diffKhT =   /* Laplacian diffusion of heat laterally ( m^2/s ) */
(PID.TID 0000.0001)                 0.000000000000000E+00
(PID.TID 0000.0001)     ;
(PID.TID 0000.0001) diffK4T =   /* Biharmonic diffusion of heat laterally ( m^4/s ) */
(PID.TID 0000.0001)                 0.000000000000000E+00
(PID.TID 0000.0001)     ;
(PID.TID 0000.0001) diffKhS =   /* Laplacian diffusion of salt laterally ( m^2/s ) */
(PID.TID 0000.0001)                 0.000000000000000E+00
(PID.TID 0000.0001)     ;
(PID.TID 0000.0001) diffK4S =   /* Biharmonic diffusion of salt laterally ( m^4/s ) */
(PID.TID 0000.0001)                 0.000000000000000E+00
(PID.TID 0000.0001)     ;
(PID.TID 0000.0001) diffKrNrT = /* vertical profile of vertical diffusion of Temp ( m^2/s )*/
(PID.TID 0000.0001)    15 @  0.000000000000000E+00              /* K =  1: 15 */
(PID.TID 0000.0001)     ;
(PID.TID 0000.0001) diffKrNrS = /* vertical profile of vertical diffusion of Salt ( m^2/s )*/
(PID.TID 0000.0001)    15 @  0.000000000000000E+00              /* K =  1: 15 */
(PID.TID 0000.0001)     ;
(PID.TID 0000.0001) diffKrBL79surf = /* Surface diffusion for Bryan and Lewis 79 ( m^2/s ) */
(PID.TID 0000.0001)                 3.000000000000000E-05
(PID.TID 0000.0001)     ;
(PID.TID 0000.0001) diffKrBL79deep = /* Deep diffusion for Bryan and Lewis 1979 ( m^2/s ) */
(PID.TID 0000.0001)                 1.300000000000000E-04
(PID.TID 0000.0001)     ;
(PID.TID 0000.0001) diffKrBL79scl = /* Depth scale for Bryan and Lewis 1979 ( m ) */
(PID.TID 0000.0001)                 1.500000000000000E+02
(PID.TID 0000.0001)     ;
(PID.TID 0000.0001) diffKrBL79Ho = /* Turning depth for Bryan and Lewis 1979 ( m ) */
(PID.TID 0000.0001)                -2.000000000000000E+03
(PID.TID 0000.0001)     ;
(PID.TID 0000.0001) ivdc_kappa = /* Implicit Vertical Diffusivity for Convection ( m^2/s) */
(PID.TID 0000.0001)                 1.000000000000000E+02
(PID.TID 0000.0001)     ;
(PID.TID 0000.0001) hMixCriteria=  /* Criteria for mixed-layer diagnostic */
(PID.TID 0000.0001)                -8.000000000000000E-01
(PID.TID 0000.0001)     ;
(PID.TID 0000.0001) dRhoSmall =  /* Parameter for mixed-layer diagnostic */
(PID.TID 0000.0001)                 1.000000000000000E-06
(PID.TID 0000.0001)     ;
(PID.TID 0000.0001) hMixSmooth=  /* Smoothing parameter for mixed-layer diagnostic */
(PID.TID 0000.0001)                 0.000000000000000E+00
(PID.TID 0000.0001)     ;
(PID.TID 0000.0001) eosType =  /* Type of Equation of State */
(PID.TID 0000.0001)               'JMD95Z'
(PID.TID 0000.0001)     ;
(PID.TID 0000.0001) selectP_inEOS_Zc = /* select pressure to use in EOS (0,1,2,3) */
(PID.TID 0000.0001)                       0
(PID.TID 0000.0001)     0= -g*rhoConst*z ; 1= pRef (from tRef,sRef); 2= Hyd P ; 3= Hyd+NH P
(PID.TID 0000.0001)     ;
(PID.TID 0000.0001) HeatCapacity_Cp =  /* Specific heat capacity ( J/kg/K ) */
(PID.TID 0000.0001)                 3.994000000000000E+03
(PID.TID 0000.0001)     ;
(PID.TID 0000.0001) celsius2K = /* 0 degree Celsius converted to Kelvin ( K ) */
(PID.TID 0000.0001)                 2.731500000000000E+02
(PID.TID 0000.0001)     ;
(PID.TID 0000.0001) rhoConst  = /* Reference density (Boussinesq)  ( kg/m^3 ) */
(PID.TID 0000.0001)                 1.035000000000000E+03
(PID.TID 0000.0001)     ;
(PID.TID 0000.0001) rhoFacC = /* normalized Reference density @ cell-Center (-) */
(PID.TID 0000.0001)    15 @  1.000000000000000E+00              /* K =  1: 15 */
(PID.TID 0000.0001)     ;
(PID.TID 0000.0001) rhoFacF = /* normalized Reference density @ W-Interface (-) */
(PID.TID 0000.0001)    16 @  1.000000000000000E+00              /* K =  1: 16 */
(PID.TID 0000.0001)     ;
(PID.TID 0000.0001) rhoConstFresh = /* Fresh-water reference density ( kg/m^3 ) */
(PID.TID 0000.0001)                 1.000000000000000E+03
(PID.TID 0000.0001)     ;
(PID.TID 0000.0001) gravity =   /* Gravitational acceleration ( m/s^2 ) */
(PID.TID 0000.0001)                 9.810000000000000E+00
(PID.TID 0000.0001)     ;
(PID.TID 0000.0001) gBaro =   /* Barotropic gravity ( m/s^2 ) */
(PID.TID 0000.0001)                 9.810000000000000E+00
(PID.TID 0000.0001)     ;
(PID.TID 0000.0001) gravFacC = /* gravity factor (vs surf.) @ cell-Center (-) */
(PID.TID 0000.0001)    15 @  1.000000000000000E+00              /* K =  1: 15 */
(PID.TID 0000.0001)     ;
(PID.TID 0000.0001) gravFacF = /* gravity factor (vs surf.) @ W-Interface (-) */
(PID.TID 0000.0001)    16 @  1.000000000000000E+00              /* K =  1: 16 */
(PID.TID 0000.0001)     ;
(PID.TID 0000.0001) rotationPeriod =   /* Rotation Period ( s ) */
(PID.TID 0000.0001)                 8.616400000000000E+04
(PID.TID 0000.0001)     ;
(PID.TID 0000.0001) omega =   /* Angular velocity ( rad/s ) */
(PID.TID 0000.0001)                 7.292123516990375E-05
(PID.TID 0000.0001)     ;
(PID.TID 0000.0001) f0 =   /* Reference coriolis parameter ( 1/s ) */
(PID.TID 0000.0001)                 1.000000000000000E-04
(PID.TID 0000.0001)     ;
(PID.TID 0000.0001) beta =   /* Beta ( 1/(m.s) ) */
(PID.TID 0000.0001)                 9.999999999999999E-12
(PID.TID 0000.0001)     ;
(PID.TID 0000.0001) fPrime =   /* Second coriolis parameter ( 1/s ) */
(PID.TID 0000.0001)                 0.000000000000000E+00
(PID.TID 0000.0001)     ;
(PID.TID 0000.0001) rigidLid =   /* Rigid lid on/off flag */
(PID.TID 0000.0001)                   F
(PID.TID 0000.0001)     ;
(PID.TID 0000.0001) implicitFreeSurface =   /* Implicit free surface on/off flag */
(PID.TID 0000.0001)                   T
(PID.TID 0000.0001)     ;
(PID.TID 0000.0001) freeSurfFac =   /* Implicit free surface factor */
(PID.TID 0000.0001)                 1.000000000000000E+00
(PID.TID 0000.0001)     ;
(PID.TID 0000.0001) implicSurfPress =  /* Surface Pressure implicit factor (0-1)*/
(PID.TID 0000.0001)                 1.000000000000000E+00
(PID.TID 0000.0001)     ;
(PID.TID 0000.0001) implicDiv2DFlow =  /* Barot. Flow Div. implicit factor (0-1)*/
(PID.TID 0000.0001)                 1.000000000000000E+00
(PID.TID 0000.0001)     ;
(PID.TID 0000.0001) uniformLin_PhiSurf = /* use uniform Bo_surf on/off flag*/
(PID.TID 0000.0001)                   T
(PID.TID 0000.0001)     ;
(PID.TID 0000.0001) uniformFreeSurfLev = /* free-surface level-index is uniform */
(PID.TID 0000.0001)                   T
(PID.TID 0000.0001)     ;
(PID.TID 0000.0001) hFacMin =   /* minimum partial cell factor (hFac) */
(PID.TID 0000.0001)                 1.000000000000000E-01
(PID.TID 0000.0001)     ;
(PID.TID 0000.0001) hFacMinDr = /* minimum partial cell thickness ( m) */
(PID.TID 0000.0001)                 5.000000000000000E+01
(PID.TID 0000.0001)     ;
(PID.TID 0000.0001) exactConserv =  /* Exact Volume Conservation on/off flag*/
(PID.TID 0000.0001)                   F
(PID.TID 0000.0001)     ;
(PID.TID 0000.0001) linFSConserveTr = /* Tracer correction for Lin Free Surface on/off flag*/
(PID.TID 0000.0001)                   F
(PID.TID 0000.0001)     ;
(PID.TID 0000.0001) nonlinFreeSurf = /* Non-linear Free Surf. options (-1,0,1,2,3)*/
(PID.TID 0000.0001)                       0
(PID.TID 0000.0001)      -1,0= Off ; 1,2,3= On, 2=+rescale gU,gV, 3=+update cg2d solv.
(PID.TID 0000.0001)     ;
(PID.TID 0000.0001) hFacInf =   /* lower threshold for hFac (nonlinFreeSurf only)*/
(PID.TID 0000.0001)                 2.000000000000000E-01
(PID.TID 0000.0001)     ;
(PID.TID 0000.0001) hFacSup =   /* upper threshold for hFac (nonlinFreeSurf only)*/
(PID.TID 0000.0001)                 2.000000000000000E+00
(PID.TID 0000.0001)     ;
(PID.TID 0000.0001) select_rStar = /* r* Vertical coord. options (=0 r coord.; >0 uses r*)*/
(PID.TID 0000.0001)                       0
(PID.TID 0000.0001)     ;
(PID.TID 0000.0001) useRealFreshWaterFlux = /* Real Fresh Water Flux on/off flag*/
(PID.TID 0000.0001)                   F
(PID.TID 0000.0001)     ;
(PID.TID 0000.0001) temp_EvPrRn = /* Temp. of Evap/Prec/R (UNSET=use local T)(oC)*/
(PID.TID 0000.0001)                 1.234567000000000E+05
(PID.TID 0000.0001)     ;
(PID.TID 0000.0001) salt_EvPrRn = /* Salin. of Evap/Prec/R (UNSET=use local S)(psu)*/
(PID.TID 0000.0001)                 0.000000000000000E+00
(PID.TID 0000.0001)     ;
(PID.TID 0000.0001) selectAddFluid = /* option for mass source/sink of fluid (=0: off) */
(PID.TID 0000.0001)                       0
(PID.TID 0000.0001)     ;
(PID.TID 0000.0001) temp_addMass = /* Temp. of addMass array (UNSET=use local T)(oC)*/
(PID.TID 0000.0001)                 1.234567000000000E+05
(PID.TID 0000.0001)     ;
(PID.TID 0000.0001) salt_addMass = /* Salin. of addMass array (UNSET=use local S)(psu)*/
(PID.TID 0000.0001)                 0.000000000000000E+00
(PID.TID 0000.0001)     ;
(PID.TID 0000.0001) convertFW2Salt = /* convert F.W. Flux to Salt Flux (-1=use local S)(psu)*/
(PID.TID 0000.0001)                 3.500000000000000E+01
(PID.TID 0000.0001)     ;
(PID.TID 0000.0001) use3Dsolver = /* use 3-D pressure solver on/off flag */
(PID.TID 0000.0001)                   F
(PID.TID 0000.0001)     ;
(PID.TID 0000.0001) nonHydrostatic =  /* Non-Hydrostatic on/off flag */
(PID.TID 0000.0001)                   F
(PID.TID 0000.0001)     ;
(PID.TID 0000.0001) nh_Am2 = /* Non-Hydrostatic terms scaling factor */
(PID.TID 0000.0001)                 1.000000000000000E+00
(PID.TID 0000.0001)     ;
(PID.TID 0000.0001) implicitNHPress = /* Non-Hyd Pressure implicit factor (0-1)*/
(PID.TID 0000.0001)                 1.000000000000000E+00
(PID.TID 0000.0001)     ;
(PID.TID 0000.0001) selectNHfreeSurf = /* Non-Hyd (free-)Surface option */
(PID.TID 0000.0001)                       0
(PID.TID 0000.0001)     ;
(PID.TID 0000.0001) quasiHydrostatic = /* Quasi-Hydrostatic on/off flag */
(PID.TID 0000.0001)                   F
(PID.TID 0000.0001)     ;
(PID.TID 0000.0001) calc_wVelocity = /* vertical velocity calculation on/off flag */
(PID.TID 0000.0001)                   T
(PID.TID 0000.0001)     ;
(PID.TID 0000.0001) momStepping =  /* Momentum equation on/off flag */
(PID.TID 0000.0001)                   T
(PID.TID 0000.0001)     ;
(PID.TID 0000.0001) vectorInvariantMomentum= /* Vector-Invariant Momentum on/off */
(PID.TID 0000.0001)                   F
(PID.TID 0000.0001)     ;
(PID.TID 0000.0001) momAdvection =  /* Momentum advection on/off flag */
(PID.TID 0000.0001)                   T
(PID.TID 0000.0001)     ;
(PID.TID 0000.0001) momViscosity =  /* Momentum viscosity on/off flag */
(PID.TID 0000.0001)                   T
(PID.TID 0000.0001)     ;
(PID.TID 0000.0001) momImplVertAdv= /* Momentum implicit vert. advection on/off*/
(PID.TID 0000.0001)                   F
(PID.TID 0000.0001)     ;
(PID.TID 0000.0001) implicitViscosity = /* Implicit viscosity on/off flag */
(PID.TID 0000.0001)                   T
(PID.TID 0000.0001)     ;
(PID.TID 0000.0001) selectImplicitDrag= /* Implicit bot Drag options (0,1,2)*/
(PID.TID 0000.0001)                       0
(PID.TID 0000.0001)     0= Expl. ; 1= Impl. on provis. Vel ; 2= Fully Impl (with surf.P)
(PID.TID 0000.0001)     ;
(PID.TID 0000.0001) metricTerms =  /* metric-Terms on/off flag */
(PID.TID 0000.0001)                   T
(PID.TID 0000.0001)     ;
(PID.TID 0000.0001) useNHMTerms = /* Non-Hydrostatic Metric-Terms on/off */
(PID.TID 0000.0001)                   F
(PID.TID 0000.0001)     ;
(PID.TID 0000.0001) selectCoriMap = /* Coriolis Map options (0,1,2,3)*/
(PID.TID 0000.0001)                       2
(PID.TID 0000.0001)     0= f-Plane ; 1= Beta-Plane ; 2= Spherical ; 3= read from file
(PID.TID 0000.0001)     ;
(PID.TID 0000.0001) use3dCoriolis = /* 3-D Coriolis on/off flag */
(PID.TID 0000.0001)                   F
(PID.TID 0000.0001)     ;
(PID.TID 0000.0001) useCoriolis =  /* Coriolis on/off flag */
(PID.TID 0000.0001)                   T
(PID.TID 0000.0001)     ;
(PID.TID 0000.0001) useCDscheme =  /* CD scheme on/off flag */
(PID.TID 0000.0001)                   T
(PID.TID 0000.0001)     ;
(PID.TID 0000.0001) useEnergyConservingCoriolis= /* Flx-Form Coriolis scheme flag */
(PID.TID 0000.0001)                   F
(PID.TID 0000.0001)     ;
(PID.TID 0000.0001) useJamartWetPoints= /* Coriolis WetPoints method flag */
(PID.TID 0000.0001)                   F
(PID.TID 0000.0001)     ;
(PID.TID 0000.0001) useJamartMomAdv= /* V.I Non-linear terms Jamart flag */
(PID.TID 0000.0001)                   F
(PID.TID 0000.0001)     ;
(PID.TID 0000.0001) useAbsVorticity= /* V.I Works with f+zeta in Coriolis */
(PID.TID 0000.0001)                   F
(PID.TID 0000.0001)     ;
(PID.TID 0000.0001) selectVortScheme= /* V.I Scheme selector for Vorticity-Term */
(PID.TID 0000.0001)               123456789
(PID.TID 0000.0001)    = 0 : enstrophy (Shallow-Water Eq.) conserving scheme by Sadourny, JAS 75
(PID.TID 0000.0001)    = 1 : same as 0 with modified hFac
(PID.TID 0000.0001)    = 2 : energy conserving scheme (used by Sadourny in JAS 75 paper)
(PID.TID 0000.0001)    = 3 : energy (general) and enstrophy (2D, nonDiv.) conserving scheme
(PID.TID 0000.0001)          from Sadourny (Burridge & Haseler, ECMWF Rep.4, 1977)
(PID.TID 0000.0001)     ;
(PID.TID 0000.0001) upwindVorticity= /* V.I Upwind bias vorticity flag */
(PID.TID 0000.0001)                   F
(PID.TID 0000.0001)     ;
(PID.TID 0000.0001) highOrderVorticity= /* V.I High order vort. advect. flag */
(PID.TID 0000.0001)                   F
(PID.TID 0000.0001)     ;
(PID.TID 0000.0001) upwindShear= /* V.I Upwind vertical Shear advection flag */
(PID.TID 0000.0001)                   F
(PID.TID 0000.0001)     ;
(PID.TID 0000.0001) selectKEscheme= /* V.I Kinetic Energy scheme selector */
(PID.TID 0000.0001)                       0
(PID.TID 0000.0001)     ;
(PID.TID 0000.0001) momForcing =  /* Momentum forcing on/off flag */
(PID.TID 0000.0001)                   T
(PID.TID 0000.0001)     ;
(PID.TID 0000.0001) momTidalForcing = /* Momentum Tidal forcing on/off flag */
(PID.TID 0000.0001)                   T
(PID.TID 0000.0001)     ;
(PID.TID 0000.0001) momPressureForcing =  /* Momentum pressure term on/off flag */
(PID.TID 0000.0001)                   T
(PID.TID 0000.0001)     ;
(PID.TID 0000.0001) implicitIntGravWave= /* Implicit Internal Gravity Wave flag */
(PID.TID 0000.0001)                   F
(PID.TID 0000.0001)     ;
(PID.TID 0000.0001) staggerTimeStep =    /* Stagger time stepping on/off flag */
(PID.TID 0000.0001)                   F
(PID.TID 0000.0001)     ;
(PID.TID 0000.0001) doResetHFactors = /* reset thickness factors @ each time-step */
(PID.TID 0000.0001)                   F
(PID.TID 0000.0001)     ;
(PID.TID 0000.0001) multiDimAdvection =  /* enable/disable Multi-Dim Advection */
(PID.TID 0000.0001)                   T
(PID.TID 0000.0001)     ;
(PID.TID 0000.0001) useMultiDimAdvec =   /* Multi-Dim Advection is/is-not used */
(PID.TID 0000.0001)                   T
(PID.TID 0000.0001)     ;
(PID.TID 0000.0001) implicitDiffusion = /* Implicit Diffusion on/off flag */
(PID.TID 0000.0001)                   T
(PID.TID 0000.0001)     ;
(PID.TID 0000.0001) tempStepping =  /* Temperature equation on/off flag */
(PID.TID 0000.0001)                   T
(PID.TID 0000.0001)     ;
(PID.TID 0000.0001) tempAdvection = /* Temperature advection on/off flag */
(PID.TID 0000.0001)                   T
(PID.TID 0000.0001)     ;
(PID.TID 0000.0001) tempImplVertAdv = /* Temp. implicit vert. advection on/off */
(PID.TID 0000.0001)                   F
(PID.TID 0000.0001)     ;
(PID.TID 0000.0001) tempForcing  =  /* Temperature forcing on/off flag */
(PID.TID 0000.0001)                   T
(PID.TID 0000.0001)     ;
(PID.TID 0000.0001) balanceQnet  =  /* balance net heat-flux on/off flag */
(PID.TID 0000.0001)                   F
(PID.TID 0000.0001)     ;
(PID.TID 0000.0001) doThetaClimRelax = /* apply SST relaxation on/off flag */
(PID.TID 0000.0001)                   F
(PID.TID 0000.0001)     ;
(PID.TID 0000.0001) balanceThetaClimRelax= /* balance SST relaxation on/off flag */
(PID.TID 0000.0001)                   F
(PID.TID 0000.0001)     ;
(PID.TID 0000.0001) tempIsActiveTr = /* Temp. is a dynamically Active Tracer */
(PID.TID 0000.0001)                   T
(PID.TID 0000.0001)     ;
(PID.TID 0000.0001) saltStepping =  /* Salinity equation on/off flag */
(PID.TID 0000.0001)                   T
(PID.TID 0000.0001)     ;
(PID.TID 0000.0001) saltAdvection = /* Salinity advection on/off flag */
(PID.TID 0000.0001)                   T
(PID.TID 0000.0001)     ;
(PID.TID 0000.0001) saltImplVertAdv = /* Sali. implicit vert. advection on/off */
(PID.TID 0000.0001)                   F
(PID.TID 0000.0001)     ;
(PID.TID 0000.0001) saltForcing  =  /* Salinity forcing on/off flag */
(PID.TID 0000.0001)                   T
(PID.TID 0000.0001)     ;
(PID.TID 0000.0001) balanceEmPmR =  /* balance net fresh-water flux on/off flag */
(PID.TID 0000.0001)                   F
(PID.TID 0000.0001)     ;
(PID.TID 0000.0001) doSaltClimRelax = /* apply SSS relaxation on/off flag */
(PID.TID 0000.0001)                   F
(PID.TID 0000.0001)     ;
(PID.TID 0000.0001) balanceSaltClimRelax= /* balance SSS relaxation on/off flag */
(PID.TID 0000.0001)                   F
(PID.TID 0000.0001)     ;
(PID.TID 0000.0001) saltIsActiveTr = /* Salt  is a dynamically Active Tracer */
(PID.TID 0000.0001)                   T
(PID.TID 0000.0001)     ;
(PID.TID 0000.0001)  readBinaryPrec = /* Precision used for reading binary files */
(PID.TID 0000.0001)                      32
(PID.TID 0000.0001)     ;
(PID.TID 0000.0001) writeBinaryPrec = /* Precision used for writing binary files */
(PID.TID 0000.0001)                      32
(PID.TID 0000.0001)     ;
(PID.TID 0000.0001)  rwSuffixType =   /* select format of mds file suffix */
(PID.TID 0000.0001)                       0
(PID.TID 0000.0001)    = 0 : myIter (I10.10) ;   = 1 : 100*myTime (100th sec) ;
(PID.TID 0000.0001)    = 2 : myTime (seconds);   = 3 : myTime/360 (10th of hr);
(PID.TID 0000.0001)    = 4 : myTime/3600 (hours)
(PID.TID 0000.0001)     ;
(PID.TID 0000.0001)  globalFiles = /* write "global" (=not per tile) files */
(PID.TID 0000.0001)                   F
(PID.TID 0000.0001)     ;
(PID.TID 0000.0001)  useSingleCpuIO = /* only master MPI process does I/O */
(PID.TID 0000.0001)                   T
(PID.TID 0000.0001)     ;
(PID.TID 0000.0001)  useSingleCpuInput = /* only master process reads input */
(PID.TID 0000.0001)                   T
(PID.TID 0000.0001)     ;
(PID.TID 0000.0001) /* debLev[*]  : level of debug & auxiliary message printing */
(PID.TID 0000.0001) debLevZero =  0 ; /* level of disabled aux. msg printing */
(PID.TID 0000.0001)    debLevA =  1 ; /* level of minimum  aux. msg printing */
(PID.TID 0000.0001)    debLevB =  2 ; /* level of low aux. print (report read-file opening)*/
(PID.TID 0000.0001)    debLevC =  3 ; /* level of moderate debug prt (most pkgs debug msg) */
(PID.TID 0000.0001)    debLevD =  4 ; /* level of enhanced debug prt (add DEBUG_STATS prt) */
(PID.TID 0000.0001)    debLevE =  5 ; /* level of extensive debug printing */
(PID.TID 0000.0001) debugLevel =  /* select debug printing level */
(PID.TID 0000.0001)                       5
(PID.TID 0000.0001)     ;
(PID.TID 0000.0001)  plotLevel =  /* select PLOT_FIELD printing level */
(PID.TID 0000.0001)                       5
(PID.TID 0000.0001)     ;
(PID.TID 0000.0001) //
(PID.TID 0000.0001) // Elliptic solver(s) paramters ( PARM02 in namelist )
(PID.TID 0000.0001) //
(PID.TID 0000.0001) cg2dMaxIters =   /* Upper limit on 2d con. grad iterations  */
(PID.TID 0000.0001)                    1000
(PID.TID 0000.0001)     ;
(PID.TID 0000.0001) cg2dChkResFreq =   /* 2d con. grad convergence test frequency */
(PID.TID 0000.0001)                       1
(PID.TID 0000.0001)     ;
(PID.TID 0000.0001) cg2dUseMinResSol= /* use cg2d last-iter(=0) / min-resid.(=1) solution */
(PID.TID 0000.0001)                       0
(PID.TID 0000.0001)     ;
(PID.TID 0000.0001) cg2dTargetResidual =   /* 2d con. grad target residual  */
(PID.TID 0000.0001)                 1.000000000000000E-13
(PID.TID 0000.0001)     ;
(PID.TID 0000.0001) cg2dTargetResWunit =   /* CG2d target residual [W units] */
(PID.TID 0000.0001)                -1.000000000000000E+00
(PID.TID 0000.0001)     ;
(PID.TID 0000.0001) cg2dPreCondFreq =   /* Freq. for updating cg2d preconditioner */
(PID.TID 0000.0001)                       1
(PID.TID 0000.0001)     ;
(PID.TID 0000.0001) useSRCGSolver =  /* use single reduction CG solver(s) */
(PID.TID 0000.0001)                   F
(PID.TID 0000.0001)     ;
(PID.TID 0000.0001) printResidualFreq = /* Freq. for printing CG residual */
(PID.TID 0000.0001)                       1
(PID.TID 0000.0001)     ;
(PID.TID 0000.0001) //
(PID.TID 0000.0001) // Time stepping paramters ( PARM03 in namelist )
(PID.TID 0000.0001) //
(PID.TID 0000.0001) deltaTMom =   /* Momentum equation timestep ( s ) */
(PID.TID 0000.0001)                 9.000000000000000E+02
(PID.TID 0000.0001)     ;
(PID.TID 0000.0001) deltaTFreeSurf = /* FreeSurface equation timestep ( s ) */
(PID.TID 0000.0001)                 9.000000000000000E+02
(PID.TID 0000.0001)     ;
(PID.TID 0000.0001) dTtracerLev =  /* Tracer equation timestep ( s ) */
(PID.TID 0000.0001)    15 @  9.000000000000000E+02              /* K =  1: 15 */
(PID.TID 0000.0001)     ;
(PID.TID 0000.0001) deltaTClock  =   /* Model clock timestep ( s ) */
(PID.TID 0000.0001)                 9.000000000000000E+02
(PID.TID 0000.0001)     ;
(PID.TID 0000.0001) cAdjFreq =   /* Convective adjustment interval ( s ) */
(PID.TID 0000.0001)                 0.000000000000000E+00
(PID.TID 0000.0001)     ;
(PID.TID 0000.0001) momForcingOutAB = /* =1: take Momentum Forcing out of Adams-Bash. stepping */
(PID.TID 0000.0001)                       1
(PID.TID 0000.0001)     ;
(PID.TID 0000.0001) tracForcingOutAB = /* =1: take T,S,pTr Forcing out of Adams-Bash. stepping */
(PID.TID 0000.0001)                       1
(PID.TID 0000.0001)     ;
(PID.TID 0000.0001) momDissip_In_AB = /* put Dissipation Tendency in Adams-Bash. stepping */
(PID.TID 0000.0001)                   F
(PID.TID 0000.0001)     ;
(PID.TID 0000.0001) doAB_onGtGs = /* apply AB on Tendencies (rather than on T,S)*/
(PID.TID 0000.0001)                   T
(PID.TID 0000.0001)     ;
(PID.TID 0000.0001) abEps =   /* Adams-Bashforth-2 stabilizing weight */
(PID.TID 0000.0001)                 1.000000000000000E-02
(PID.TID 0000.0001)     ;
(PID.TID 0000.0001) alph_AB =   /* Adams-Bashforth-3 primary factor */
(PID.TID 0000.0001)                 5.000000000000000E-01
(PID.TID 0000.0001)     ;
(PID.TID 0000.0001) beta_AB =   /* Adams-Bashforth-3 secondary factor */
(PID.TID 0000.0001)                 4.166666666666667E-01
(PID.TID 0000.0001)     ;
(PID.TID 0000.0001) startFromPickupAB2= /* start from AB-2 pickup */
(PID.TID 0000.0001)                   F
(PID.TID 0000.0001)     ;
(PID.TID 0000.0001) applyExchUV_early = /* Apply EXCH to U,V earlier in time-step */
(PID.TID 0000.0001)                   F
(PID.TID 0000.0001)     ;
(PID.TID 0000.0001) tauCD =   /* CD coupling time-scale ( s ) */
(PID.TID 0000.0001)                 3.214280000000000E+05
(PID.TID 0000.0001)     ;
(PID.TID 0000.0001) rCD =   /* Normalised CD coupling parameter */
(PID.TID 0000.0001)                 9.971999950222133E-01
(PID.TID 0000.0001)     ;
(PID.TID 0000.0001) epsAB_CD = /* AB-2 stabilizing weight for CD-scheme*/
(PID.TID 0000.0001)                 1.000000000000000E-02
(PID.TID 0000.0001)     ;
(PID.TID 0000.0001) pickupStrictlyMatch= /* stop if pickup do not strictly match */
(PID.TID 0000.0001)                   T
(PID.TID 0000.0001)     ;
(PID.TID 0000.0001) nIter0   =   /* Run starting timestep number */
(PID.TID 0000.0001)                       0
(PID.TID 0000.0001)     ;
(PID.TID 0000.0001) nTimeSteps = /* Number of timesteps */
(PID.TID 0000.0001)                       4
(PID.TID 0000.0001)     ;
(PID.TID 0000.0001) nEndIter =   /* Run ending timestep number */
(PID.TID 0000.0001)                       4
(PID.TID 0000.0001)     ;
(PID.TID 0000.0001) baseTime =   /* Model base time ( s ) */
(PID.TID 0000.0001)                 0.000000000000000E+00
(PID.TID 0000.0001)     ;
(PID.TID 0000.0001) startTime =  /* Run start time ( s ) */
(PID.TID 0000.0001)                 0.000000000000000E+00
(PID.TID 0000.0001)     ;
(PID.TID 0000.0001) endTime  =   /* Integration ending time ( s ) */
(PID.TID 0000.0001)                 3.600000000000000E+03
(PID.TID 0000.0001)     ;
(PID.TID 0000.0001) pChkPtFreq = /* Permanent restart/pickup file interval ( s ) */
(PID.TID 0000.0001)                 2.160000000000000E+05
(PID.TID 0000.0001)     ;
(PID.TID 0000.0001) chkPtFreq  = /* Rolling restart/pickup file interval ( s ) */
(PID.TID 0000.0001)                 0.000000000000000E+00
(PID.TID 0000.0001)     ;
(PID.TID 0000.0001) pickup_write_mdsio =   /* Model IO flag. */
(PID.TID 0000.0001)                   T
(PID.TID 0000.0001)     ;
(PID.TID 0000.0001) pickup_read_mdsio =   /* Model IO flag. */
(PID.TID 0000.0001)                   T
(PID.TID 0000.0001)     ;
(PID.TID 0000.0001) writePickupAtEnd =   /* Model IO flag. */
(PID.TID 0000.0001)                   T
(PID.TID 0000.0001)     ;
(PID.TID 0000.0001) dumpFreq =   /* Model state write out interval ( s ). */
(PID.TID 0000.0001)                 0.000000000000000E+00
(PID.TID 0000.0001)     ;
(PID.TID 0000.0001) dumpInitAndLast= /* write out Initial & Last iter. model state */
(PID.TID 0000.0001)                   T
(PID.TID 0000.0001)     ;
(PID.TID 0000.0001) snapshot_mdsio =   /* Model IO flag. */
(PID.TID 0000.0001)                   T
(PID.TID 0000.0001)     ;
(PID.TID 0000.0001) monitorFreq =   /* Monitor output interval ( s ). */
(PID.TID 0000.0001)                 1.000000000000000E+00
(PID.TID 0000.0001)     ;
(PID.TID 0000.0001) monitorSelect = /* select group of variables to monitor */
(PID.TID 0000.0001)                       3
(PID.TID 0000.0001)     ;
(PID.TID 0000.0001) monitor_stdio =   /* Model IO flag. */
(PID.TID 0000.0001)                   T
(PID.TID 0000.0001)     ;
(PID.TID 0000.0001) externForcingPeriod =   /* forcing period (s) */
(PID.TID 0000.0001)                 2.592000000000000E+06
(PID.TID 0000.0001)     ;
(PID.TID 0000.0001) externForcingCycle =   /* period of the cyle (s). */
(PID.TID 0000.0001)                 3.110400000000000E+07
(PID.TID 0000.0001)     ;
(PID.TID 0000.0001) tauThetaClimRelax =   /* relaxation time scale (s) */
(PID.TID 0000.0001)                 0.000000000000000E+00
(PID.TID 0000.0001)     ;
(PID.TID 0000.0001) tauSaltClimRelax =   /* relaxation time scale (s) */
(PID.TID 0000.0001)                 0.000000000000000E+00
(PID.TID 0000.0001)     ;
(PID.TID 0000.0001) latBandClimRelax =   /* max. Lat. where relaxation */
(PID.TID 0000.0001)                 1.800000000000000E+02
(PID.TID 0000.0001)     ;
(PID.TID 0000.0001) //
(PID.TID 0000.0001) // Gridding paramters ( PARM04 in namelist )
(PID.TID 0000.0001) //
(PID.TID 0000.0001) usingCartesianGrid = /* Cartesian coordinates flag ( True/False ) */
(PID.TID 0000.0001)                   F
(PID.TID 0000.0001)     ;
(PID.TID 0000.0001) usingCylindricalGrid = /* Cylindrical coordinates flag ( True/False ) */
(PID.TID 0000.0001)                   F
(PID.TID 0000.0001)     ;
(PID.TID 0000.0001) usingSphericalPolarGrid = /* Spherical coordinates flag ( True/False ) */
(PID.TID 0000.0001)                   T
(PID.TID 0000.0001)     ;
(PID.TID 0000.0001) usingCurvilinearGrid = /* Curvilinear coordinates flag ( True/False ) */
(PID.TID 0000.0001)                   F
(PID.TID 0000.0001)     ;
(PID.TID 0000.0001) useMin4hFacEdges = /* set hFacW,S as minimum of adjacent hFacC factor */
(PID.TID 0000.0001)                   F
(PID.TID 0000.0001)     ;
(PID.TID 0000.0001) interViscAr_pCell = /* account for partial-cell in interior vert. viscosity */
(PID.TID 0000.0001)                   F
(PID.TID 0000.0001)     ;
(PID.TID 0000.0001) interDiffKr_pCell = /* account for partial-cell in interior vert. diffusion */
(PID.TID 0000.0001)                   F
(PID.TID 0000.0001)     ;
(PID.TID 0000.0001) pCellMix_select = /* option to enhance mixing near surface & bottom */
(PID.TID 0000.0001)                       0
(PID.TID 0000.0001)     ;
(PID.TID 0000.0001) selectSigmaCoord = /* Hybrid-Sigma Vert. Coordinate option */
(PID.TID 0000.0001)                       0
(PID.TID 0000.0001)     ;
(PID.TID 0000.0001) rSigmaBnd = /* r/sigma transition ( units of r ==  m ) */
(PID.TID 0000.0001)                 1.234567000000000E+05
(PID.TID 0000.0001)     ;
(PID.TID 0000.0001) rkSign =   /* index orientation relative to vertical coordinate */
(PID.TID 0000.0001)                -1.000000000000000E+00
(PID.TID 0000.0001)     ;
(PID.TID 0000.0001) gravitySign = /* gravity orientation relative to vertical coordinate */
(PID.TID 0000.0001)                -1.000000000000000E+00
(PID.TID 0000.0001)     ;
(PID.TID 0000.0001) seaLev_Z =  /* reference height of sea-level [m] */
(PID.TID 0000.0001)                 0.000000000000000E+00
(PID.TID 0000.0001)     ;
(PID.TID 0000.0001) top_Pres =  /* reference pressure at the top [Pa] */
(PID.TID 0000.0001)                 0.000000000000000E+00
(PID.TID 0000.0001)     ;
(PID.TID 0000.0001) mass2rUnit = /* convert mass per unit area [kg/m2] to r-units [m] */
(PID.TID 0000.0001)                 9.661835748792270E-04
(PID.TID 0000.0001)     ;
(PID.TID 0000.0001) rUnit2mass = /* convert r-units [m] to mass per unit area [kg/m2] */
(PID.TID 0000.0001)                 1.035000000000000E+03
(PID.TID 0000.0001)     ;
(PID.TID 0000.0001) drC =   /* C spacing ( units of r ) */
(PID.TID 0000.0001)                 2.500000000000000E+01,      /* K =  1 */
(PID.TID 0000.0001)                 6.000000000000000E+01,      /* K =  2 */
(PID.TID 0000.0001)                 8.500000000000000E+01,      /* K =  3 */
(PID.TID 0000.0001)                 1.200000000000000E+02,      /* K =  4 */
(PID.TID 0000.0001)                 1.650000000000000E+02,      /* K =  5 */
(PID.TID 0000.0001)                 2.150000000000000E+02,      /* K =  6 */
(PID.TID 0000.0001)                 2.650000000000000E+02,      /* K =  7 */
(PID.TID 0000.0001)                 3.150000000000000E+02,      /* K =  8 */
(PID.TID 0000.0001)                 3.650000000000000E+02,      /* K =  9 */
(PID.TID 0000.0001)                 4.150000000000000E+02,      /* K = 10 */
(PID.TID 0000.0001)                 4.650000000000000E+02,      /* K = 11 */
(PID.TID 0000.0001)                 5.150000000000000E+02,      /* K = 12 */
(PID.TID 0000.0001)                 5.650000000000000E+02,      /* K = 13 */
(PID.TID 0000.0001)                 6.150000000000000E+02,      /* K = 14 */
(PID.TID 0000.0001)                 6.650000000000000E+02,      /* K = 15 */
(PID.TID 0000.0001)                 3.450000000000000E+02       /* K = 16 */
(PID.TID 0000.0001)     ;
(PID.TID 0000.0001) drF =   /* W spacing ( units of r ) */
(PID.TID 0000.0001)                 5.000000000000000E+01,      /* K =  1 */
(PID.TID 0000.0001)                 7.000000000000000E+01,      /* K =  2 */
(PID.TID 0000.0001)                 1.000000000000000E+02,      /* K =  3 */
(PID.TID 0000.0001)                 1.400000000000000E+02,      /* K =  4 */
(PID.TID 0000.0001)                 1.900000000000000E+02,      /* K =  5 */
(PID.TID 0000.0001)                 2.400000000000000E+02,      /* K =  6 */
(PID.TID 0000.0001)                 2.900000000000000E+02,      /* K =  7 */
(PID.TID 0000.0001)                 3.400000000000000E+02,      /* K =  8 */
(PID.TID 0000.0001)                 3.900000000000000E+02,      /* K =  9 */
(PID.TID 0000.0001)                 4.400000000000000E+02,      /* K = 10 */
(PID.TID 0000.0001)                 4.900000000000000E+02,      /* K = 11 */
(PID.TID 0000.0001)                 5.400000000000000E+02,      /* K = 12 */
(PID.TID 0000.0001)                 5.900000000000000E+02,      /* K = 13 */
(PID.TID 0000.0001)                 6.400000000000000E+02,      /* K = 14 */
(PID.TID 0000.0001)                 6.900000000000000E+02       /* K = 15 */
(PID.TID 0000.0001)     ;
(PID.TID 0000.0001) delX = /* U spacing ( m - cartesian, degrees - spherical ) */
(PID.TID 0000.0001)   128 @  2.812500000000000E+00              /* I =  1:128 */
(PID.TID 0000.0001)     ;
(PID.TID 0000.0001) delY = /* V spacing ( m - cartesian, degrees - spherical ) */
(PID.TID 0000.0001)    64 @  2.812500000000000E+00              /* J =  1: 64 */
(PID.TID 0000.0001)     ;
(PID.TID 0000.0001) xgOrigin = /* X-axis origin of West  edge (cartesian: m, lat-lon: deg) */
(PID.TID 0000.0001)                 0.000000000000000E+00
(PID.TID 0000.0001)     ;
(PID.TID 0000.0001) ygOrigin = /* Y-axis origin of South edge (cartesian: m, lat-lon: deg) */
(PID.TID 0000.0001)                -9.000000000000000E+01
(PID.TID 0000.0001)     ;
(PID.TID 0000.0001) rSphere =  /* Radius ( ignored - cartesian, m - spherical ) */
(PID.TID 0000.0001)                 6.370000000000000E+06
(PID.TID 0000.0001)     ;
(PID.TID 0000.0001) deepAtmosphere = /* Deep/Shallow Atmosphere flag (True/False) */
(PID.TID 0000.0001)                   F
(PID.TID 0000.0001)     ;
(PID.TID 0000.0001) xC =  /* xC(:,1,:,1) : P-point X coord ( deg. or m if cartesian) */
(PID.TID 0000.0001)                 1.406250000000000E+00,      /* I =  1 */
(PID.TID 0000.0001)                 4.218750000000000E+00,      /* I =  2 */
(PID.TID 0000.0001)                 7.031250000000000E+00,      /* I =  3 */
(PID.TID 0000.0001)      . . .
(PID.TID 0000.0001)                 8.296875000000000E+01,      /* I = 30 */
(PID.TID 0000.0001)                 8.578125000000000E+01,      /* I = 31 */
(PID.TID 0000.0001)                 8.859375000000000E+01,      /* I = 32 */
(PID.TID 0000.0001)                 9.140625000000000E+01,      /* I = 33 */
(PID.TID 0000.0001)                 9.421875000000000E+01,      /* I = 34 */
(PID.TID 0000.0001)                 9.703125000000000E+01,      /* I = 35 */
(PID.TID 0000.0001)      . . .
(PID.TID 0000.0001)                 1.729687500000000E+02,      /* I = 62 */
(PID.TID 0000.0001)                 1.757812500000000E+02,      /* I = 63 */
(PID.TID 0000.0001)                 1.785937500000000E+02,      /* I = 64 */
(PID.TID 0000.0001)                 1.814062500000000E+02,      /* I = 65 */
(PID.TID 0000.0001)                 1.842187500000000E+02,      /* I = 66 */
(PID.TID 0000.0001)                 1.870312500000000E+02,      /* I = 67 */
(PID.TID 0000.0001)      . . .
(PID.TID 0000.0001)                 2.629687500000000E+02,      /* I = 94 */
(PID.TID 0000.0001)                 2.657812500000000E+02,      /* I = 95 */
(PID.TID 0000.0001)                 2.685937500000000E+02,      /* I = 96 */
(PID.TID 0000.0001)                 2.714062500000000E+02,      /* I = 97 */
(PID.TID 0000.0001)                 2.742187500000000E+02,      /* I = 98 */
(PID.TID 0000.0001)                 2.770312500000000E+02,      /* I = 99 */
(PID.TID 0000.0001)      . . .
(PID.TID 0000.0001)                 3.529687500000000E+02,      /* I =126 */
(PID.TID 0000.0001)                 3.557812500000000E+02,      /* I =127 */
(PID.TID 0000.0001)                 3.585937500000000E+02       /* I =128 */
(PID.TID 0000.0001)     ;
(PID.TID 0000.0001) yC =  /* yC(1,:,1,:) : P-point Y coord ( deg. or m if cartesian) */
(PID.TID 0000.0001)                -8.859375000000000E+01,      /* J =  1 */
(PID.TID 0000.0001)                -8.578125000000000E+01,      /* J =  2 */
(PID.TID 0000.0001)                -8.296875000000000E+01,      /* J =  3 */
(PID.TID 0000.0001)                -8.015625000000000E+01,      /* J =  4 */
(PID.TID 0000.0001)                -7.734375000000000E+01,      /* J =  5 */
(PID.TID 0000.0001)                -7.453125000000000E+01,      /* J =  6 */
(PID.TID 0000.0001)                -7.171875000000000E+01,      /* J =  7 */
(PID.TID 0000.0001)                -6.890625000000000E+01,      /* J =  8 */
(PID.TID 0000.0001)                -6.609375000000000E+01,      /* J =  9 */
(PID.TID 0000.0001)                -6.328125000000000E+01,      /* J = 10 */
(PID.TID 0000.0001)                -6.046875000000000E+01,      /* J = 11 */
(PID.TID 0000.0001)                -5.765625000000000E+01,      /* J = 12 */
(PID.TID 0000.0001)                -5.484375000000000E+01,      /* J = 13 */
(PID.TID 0000.0001)                -5.203125000000000E+01,      /* J = 14 */
(PID.TID 0000.0001)                -4.921875000000000E+01,      /* J = 15 */
(PID.TID 0000.0001)                -4.640625000000000E+01,      /* J = 16 */
(PID.TID 0000.0001)                -4.359375000000000E+01,      /* J = 17 */
(PID.TID 0000.0001)                -4.078125000000000E+01,      /* J = 18 */
(PID.TID 0000.0001)                -3.796875000000000E+01,      /* J = 19 */
(PID.TID 0000.0001)                -3.515625000000000E+01,      /* J = 20 */
(PID.TID 0000.0001)                -3.234375000000000E+01,      /* J = 21 */
(PID.TID 0000.0001)                -2.953125000000000E+01,      /* J = 22 */
(PID.TID 0000.0001)                -2.671875000000000E+01,      /* J = 23 */
(PID.TID 0000.0001)                -2.390625000000000E+01,      /* J = 24 */
(PID.TID 0000.0001)                -2.109375000000000E+01,      /* J = 25 */
(PID.TID 0000.0001)                -1.828125000000000E+01,      /* J = 26 */
(PID.TID 0000.0001)                -1.546875000000000E+01,      /* J = 27 */
(PID.TID 0000.0001)                -1.265625000000000E+01,      /* J = 28 */
(PID.TID 0000.0001)                -9.843750000000000E+00,      /* J = 29 */
(PID.TID 0000.0001)                -7.031250000000000E+00,      /* J = 30 */
(PID.TID 0000.0001)                -4.218750000000000E+00,      /* J = 31 */
(PID.TID 0000.0001)                -1.406250000000000E+00,      /* J = 32 */
(PID.TID 0000.0001)                 1.406250000000000E+00,      /* J = 33 */
(PID.TID 0000.0001)                 4.218750000000000E+00,      /* J = 34 */
(PID.TID 0000.0001)                 7.031250000000000E+00,      /* J = 35 */
(PID.TID 0000.0001)                 9.843750000000000E+00,      /* J = 36 */
(PID.TID 0000.0001)                 1.265625000000000E+01,      /* J = 37 */
(PID.TID 0000.0001)                 1.546875000000000E+01,      /* J = 38 */
(PID.TID 0000.0001)                 1.828125000000000E+01,      /* J = 39 */
(PID.TID 0000.0001)                 2.109375000000000E+01,      /* J = 40 */
(PID.TID 0000.0001)                 2.390625000000000E+01,      /* J = 41 */
(PID.TID 0000.0001)                 2.671875000000000E+01,      /* J = 42 */
(PID.TID 0000.0001)                 2.953125000000000E+01,      /* J = 43 */
(PID.TID 0000.0001)                 3.234375000000000E+01,      /* J = 44 */
(PID.TID 0000.0001)                 3.515625000000000E+01,      /* J = 45 */
(PID.TID 0000.0001)                 3.796875000000000E+01,      /* J = 46 */
(PID.TID 0000.0001)                 4.078125000000000E+01,      /* J = 47 */
(PID.TID 0000.0001)                 4.359375000000000E+01,      /* J = 48 */
(PID.TID 0000.0001)                 4.640625000000000E+01,      /* J = 49 */
(PID.TID 0000.0001)                 4.921875000000000E+01,      /* J = 50 */
(PID.TID 0000.0001)                 5.203125000000000E+01,      /* J = 51 */
(PID.TID 0000.0001)                 5.484375000000000E+01,      /* J = 52 */
(PID.TID 0000.0001)                 5.765625000000000E+01,      /* J = 53 */
(PID.TID 0000.0001)                 6.046875000000000E+01,      /* J = 54 */
(PID.TID 0000.0001)                 6.328125000000000E+01,      /* J = 55 */
(PID.TID 0000.0001)                 6.609375000000000E+01,      /* J = 56 */
(PID.TID 0000.0001)                 6.890625000000000E+01,      /* J = 57 */
(PID.TID 0000.0001)                 7.171875000000000E+01,      /* J = 58 */
(PID.TID 0000.0001)                 7.453125000000000E+01,      /* J = 59 */
(PID.TID 0000.0001)                 7.734375000000000E+01,      /* J = 60 */
(PID.TID 0000.0001)                 8.015625000000000E+01,      /* J = 61 */
(PID.TID 0000.0001)                 8.296875000000000E+01,      /* J = 62 */
(PID.TID 0000.0001)                 8.578125000000000E+01,      /* J = 63 */
(PID.TID 0000.0001)                 8.859375000000000E+01       /* J = 64 */
(PID.TID 0000.0001)     ;
(PID.TID 0000.0001) rcoord = /* P-point R coordinate (  units of r ) */
(PID.TID 0000.0001)                -2.500000000000000E+01,      /* K =  1 */
(PID.TID 0000.0001)                -8.500000000000000E+01,      /* K =  2 */
(PID.TID 0000.0001)                -1.700000000000000E+02,      /* K =  3 */
(PID.TID 0000.0001)                -2.900000000000000E+02,      /* K =  4 */
(PID.TID 0000.0001)                -4.550000000000000E+02,      /* K =  5 */
(PID.TID 0000.0001)                -6.700000000000000E+02,      /* K =  6 */
(PID.TID 0000.0001)                -9.350000000000000E+02,      /* K =  7 */
(PID.TID 0000.0001)                -1.250000000000000E+03,      /* K =  8 */
(PID.TID 0000.0001)                -1.615000000000000E+03,      /* K =  9 */
(PID.TID 0000.0001)                -2.030000000000000E+03,      /* K = 10 */
(PID.TID 0000.0001)                -2.495000000000000E+03,      /* K = 11 */
(PID.TID 0000.0001)                -3.010000000000000E+03,      /* K = 12 */
(PID.TID 0000.0001)                -3.575000000000000E+03,      /* K = 13 */
(PID.TID 0000.0001)                -4.190000000000000E+03,      /* K = 14 */
(PID.TID 0000.0001)                -4.855000000000000E+03       /* K = 15 */
(PID.TID 0000.0001)     ;
(PID.TID 0000.0001) rF =   /* W-Interf. R coordinate (  units of r ) */
(PID.TID 0000.0001)                 0.000000000000000E+00,      /* K =  1 */
(PID.TID 0000.0001)                -5.000000000000000E+01,      /* K =  2 */
(PID.TID 0000.0001)                -1.200000000000000E+02,      /* K =  3 */
(PID.TID 0000.0001)                -2.200000000000000E+02,      /* K =  4 */
(PID.TID 0000.0001)                -3.600000000000000E+02,      /* K =  5 */
(PID.TID 0000.0001)                -5.500000000000000E+02,      /* K =  6 */
(PID.TID 0000.0001)                -7.900000000000000E+02,      /* K =  7 */
(PID.TID 0000.0001)                -1.080000000000000E+03,      /* K =  8 */
(PID.TID 0000.0001)                -1.420000000000000E+03,      /* K =  9 */
(PID.TID 0000.0001)                -1.810000000000000E+03,      /* K = 10 */
(PID.TID 0000.0001)                -2.250000000000000E+03,      /* K = 11 */
(PID.TID 0000.0001)                -2.740000000000000E+03,      /* K = 12 */
(PID.TID 0000.0001)                -3.280000000000000E+03,      /* K = 13 */
(PID.TID 0000.0001)                -3.870000000000000E+03,      /* K = 14 */
(PID.TID 0000.0001)                -4.510000000000000E+03,      /* K = 15 */
(PID.TID 0000.0001)                -5.200000000000000E+03       /* K = 16 */
(PID.TID 0000.0001)     ;
(PID.TID 0000.0001) deepFacC = /* deep-model grid factor @ cell-Center (-) */
(PID.TID 0000.0001)    15 @  1.000000000000000E+00              /* K =  1: 15 */
(PID.TID 0000.0001)     ;
(PID.TID 0000.0001) deepFacF = /* deep-model grid factor @ W-Interface (-) */
(PID.TID 0000.0001)    16 @  1.000000000000000E+00              /* K =  1: 16 */
(PID.TID 0000.0001)     ;
(PID.TID 0000.0001) rVel2wUnit = /* convert units: rVel -> wSpeed (=1 if z-coord)*/
(PID.TID 0000.0001)    16 @  1.000000000000000E+00              /* K =  1: 16 */
(PID.TID 0000.0001)     ;
(PID.TID 0000.0001) wUnit2rVel = /* convert units: wSpeed -> rVel (=1 if z-coord)*/
(PID.TID 0000.0001)    16 @  1.000000000000000E+00              /* K =  1: 16 */
(PID.TID 0000.0001)     ;
(PID.TID 0000.0001) dBdrRef = /* Vertical grad. of reference buoyancy [(m/s/r)^2] */
(PID.TID 0000.0001)    15 @  0.000000000000000E+00              /* K =  1: 15 */
(PID.TID 0000.0001)     ;
(PID.TID 0000.0001) rotateGrid = /* use rotated grid ( True/False ) */
(PID.TID 0000.0001)                   F
(PID.TID 0000.0001)     ;
(PID.TID 0000.0001) phiEuler = /* Euler angle, rotation about original z-coordinate [rad] */
(PID.TID 0000.0001)                 0.000000000000000E+00
(PID.TID 0000.0001)     ;
(PID.TID 0000.0001) thetaEuler = /* Euler angle, rotation about new x-coordinate [rad] */
(PID.TID 0000.0001)                 0.000000000000000E+00
(PID.TID 0000.0001)     ;
(PID.TID 0000.0001) psiEuler = /* Euler angle, rotation about new z-coordinate [rad] */
(PID.TID 0000.0001)                 0.000000000000000E+00
(PID.TID 0000.0001)     ;
(PID.TID 0000.0001) dxF =  /* dxF(:,1,:,1) ( units: m ) */
(PID.TID 0000.0001)   128 @  7.673714381622299E+03              /* I =  1:128 */
(PID.TID 0000.0001)     ;
(PID.TID 0000.0001) dxF =  /* dxF(1,:,1,:) ( units: m ) */
(PID.TID 0000.0001)                 7.673714381622299E+03,      /* J =  1 */
(PID.TID 0000.0001)                 2.300265649478360E+04,      /* J =  2 */
(PID.TID 0000.0001)                 3.827618319365421E+04,      /* J =  3 */
(PID.TID 0000.0001)                 5.345749921461356E+04,      /* J =  4 */
(PID.TID 0000.0001)                 6.851003143764105E+04,      /* J =  5 */
(PID.TID 0000.0001)                 8.339751699416524E+04,      /* J =  6 */
(PID.TID 0000.0001)                 9.808409062749069E+04,      /* J =  7 */
(PID.TID 0000.0001)                 1.125343710953429E+05,      /* J =  8 */
(PID.TID 0000.0001)                 1.267135464063795E+05,      /* J =  9 */
(PID.TID 0000.0001)                 1.405874576853274E+05,      /* J = 10 */
(PID.TID 0000.0001)                 1.541226814647045E+05,      /* J = 11 */
(PID.TID 0000.0001)                 1.672866102048805E+05,      /* J = 12 */
(PID.TID 0000.0001)                 1.800475308484964E+05,      /* J = 13 */
(PID.TID 0000.0001)                 1.923747012199971E+05,      /* J = 14 */
(PID.TID 0000.0001)                 2.042384240862252E+05,      /* J = 15 */
(PID.TID 0000.0001)                 2.156101186996563E+05,      /* J = 16 */
(PID.TID 0000.0001)                 2.264623896519241E+05,      /* J = 17 */
(PID.TID 0000.0001)                 2.367690928717577E+05,      /* J = 18 */
(PID.TID 0000.0001)                 2.465053986083400E+05,      /* J = 19 */
(PID.TID 0000.0001)                 2.556478512483520E+05,      /* J = 20 */
(PID.TID 0000.0001)                 2.641744258225996E+05,      /* J = 21 */
(PID.TID 0000.0001)                 2.720645810660936E+05,      /* J = 22 */
(PID.TID 0000.0001)                 2.792993089037565E+05,      /* J = 23 */
(PID.TID 0000.0001)                 2.858611802425402E+05,      /* J = 24 */
(PID.TID 0000.0001)                 2.917343869596373E+05,      /* J = 25 */
(PID.TID 0000.0001)                 2.969047799856344E+05,      /* J = 26 */
(PID.TID 0000.0001)                 3.013599033908587E+05,      /* J = 27 */
(PID.TID 0000.0001)                 3.050890243928043E+05,      /* J = 28 */
(PID.TID 0000.0001)                 3.080831592123453E+05,      /* J = 29 */
(PID.TID 0000.0001)                 3.103350947164461E+05,      /* J = 30 */
(PID.TID 0000.0001)                 3.118394057952309E+05,      /* J = 31 */
(PID.TID 0000.0001)     2 @  3.125924684315491E+05,             /* J = 32: 33 */
(PID.TID 0000.0001)                 3.118394057952309E+05,      /* J = 34 */
(PID.TID 0000.0001)                 3.103350947164461E+05,      /* J = 35 */
(PID.TID 0000.0001)                 3.080831592123453E+05,      /* J = 36 */
(PID.TID 0000.0001)                 3.050890243928043E+05,      /* J = 37 */
(PID.TID 0000.0001)                 3.013599033908587E+05,      /* J = 38 */
(PID.TID 0000.0001)                 2.969047799856344E+05,      /* J = 39 */
(PID.TID 0000.0001)                 2.917343869596373E+05,      /* J = 40 */
(PID.TID 0000.0001)                 2.858611802425402E+05,      /* J = 41 */
(PID.TID 0000.0001)                 2.792993089037565E+05,      /* J = 42 */
(PID.TID 0000.0001)                 2.720645810660936E+05,      /* J = 43 */
(PID.TID 0000.0001)                 2.641744258225996E+05,      /* J = 44 */
(PID.TID 0000.0001)                 2.556478512483520E+05,      /* J = 45 */
(PID.TID 0000.0001)                 2.465053986083400E+05,      /* J = 46 */
(PID.TID 0000.0001)                 2.367690928717577E+05,      /* J = 47 */
(PID.TID 0000.0001)                 2.264623896519241E+05,      /* J = 48 */
(PID.TID 0000.0001)                 2.156101186996563E+05,      /* J = 49 */
(PID.TID 0000.0001)                 2.042384240862252E+05,      /* J = 50 */
(PID.TID 0000.0001)                 1.923747012199971E+05,      /* J = 51 */
(PID.TID 0000.0001)                 1.800475308484964E+05,      /* J = 52 */
(PID.TID 0000.0001)                 1.672866102048805E+05,      /* J = 53 */
(PID.TID 0000.0001)                 1.541226814647045E+05,      /* J = 54 */
(PID.TID 0000.0001)                 1.405874576853274E+05,      /* J = 55 */
(PID.TID 0000.0001)                 1.267135464063795E+05,      /* J = 56 */
(PID.TID 0000.0001)                 1.125343710953429E+05,      /* J = 57 */
(PID.TID 0000.0001)                 9.808409062749069E+04,      /* J = 58 */
(PID.TID 0000.0001)                 8.339751699416524E+04,      /* J = 59 */
(PID.TID 0000.0001)                 6.851003143764105E+04,      /* J = 60 */
(PID.TID 0000.0001)                 5.345749921461356E+04,      /* J = 61 */
(PID.TID 0000.0001)                 3.827618319365421E+04,      /* J = 62 */
(PID.TID 0000.0001)                 2.300265649478360E+04,      /* J = 63 */
(PID.TID 0000.0001)                 7.673714381622299E+03       /* J = 64 */
(PID.TID 0000.0001)     ;
(PID.TID 0000.0001) dyF =  /* dyF(:,1,:,1) ( units: m ) */
(PID.TID 0000.0001)   128 @  3.126866438026091E+05              /* I =  1:128 */
(PID.TID 0000.0001)     ;
(PID.TID 0000.0001) dyF =  /* dyF(1,:,1,:) ( units: m ) */
(PID.TID 0000.0001)    64 @  3.126866438026091E+05              /* J =  1: 64 */
(PID.TID 0000.0001)     ;
(PID.TID 0000.0001) dxG =  /* dxG(:,1,:,1) ( units: m ) */
(PID.TID 0000.0001)   128 @  0.000000000000000E+00              /* I =  1:128 */
(PID.TID 0000.0001)     ;
(PID.TID 0000.0001) dxG =  /* dxG(1,:,1,:) ( units: m ) */
(PID.TID 0000.0001)                 0.000000000000000E+00,      /* J =  1 */
(PID.TID 0000.0001)                 1.534280640463982E+04,      /* J =  2 */
(PID.TID 0000.0001)                 3.064865064477965E+04,      /* J =  3 */
(PID.TID 0000.0001)                 4.588065960101153E+04,      /* J =  4 */
(PID.TID 0000.0001)                 6.100213802959342E+04,      /* J =  5 */
(PID.TID 0000.0001)                 7.597665696450579E+04,      /* J =  6 */
(PID.TID 0000.0001)                 9.076814147802138E+04,      /* J =  7 */
(PID.TID 0000.0001)                 1.053409575883663E+05,      /* J =  8 */
(PID.TID 0000.0001)                 1.196599981051027E+05,      /* J =  9 */
(PID.TID 0000.0001)                 1.336907672054259E+05,      /* J = 10 */
(PID.TID 0000.0001)                 1.473994635376230E+05,      /* J = 11 */
(PID.TID 0000.0001)                 1.607530616514898E+05,      /* J = 12 */
(PID.TID 0000.0001)                 1.737193915595329E+05,      /* J = 13 */
(PID.TID 0000.0001)                 1.862672162372875E+05,      /* J = 14 */
(PID.TID 0000.0001)                 1.983663068760452E+05,      /* J = 15 */
(PID.TID 0000.0001)                 2.099875157067021E+05,      /* J = 16 */
(PID.TID 0000.0001)                 2.211028462192875E+05,      /* J = 17 */
(PID.TID 0000.0001)                 2.316855206090084E+05,      /* J = 18 */
(PID.TID 0000.0001)                 2.417100442863276E+05,      /* J = 19 */
(PID.TID 0000.0001)                 2.511522672956614E+05,      /* J = 20 */
(PID.TID 0000.0001)                 2.599894424947394E+05,      /* J = 21 */
(PID.TID 0000.0001)                 2.682002803544621E+05,      /* J = 22 */
(PID.TID 0000.0001)                 2.757650002472408E+05,      /* J = 23 */
(PID.TID 0000.0001)                 2.826653781002625E+05,      /* J = 24 */
(PID.TID 0000.0001)                 2.888847902988777E+05,      /* J = 25 */
(PID.TID 0000.0001)                 2.944082537343438E+05,      /* J = 26 */
(PID.TID 0000.0001)                 2.992224618994463E+05,      /* J = 27 */
(PID.TID 0000.0001)                 3.033158169450409E+05,      /* J = 28 */
(PID.TID 0000.0001)                 3.066784576202870E+05,      /* J = 29 */
(PID.TID 0000.0001)                 3.093022830292655E+05,      /* J = 30 */
(PID.TID 0000.0001)                 3.111809721467461E+05,      /* J = 31 */
(PID.TID 0000.0001)                 3.123099990460912E+05,      /* J = 32 */
(PID.TID 0000.0001)                 3.126866438026091E+05,      /* J = 33 */
(PID.TID 0000.0001)                 3.123099990460912E+05,      /* J = 34 */
(PID.TID 0000.0001)                 3.111809721467461E+05,      /* J = 35 */
(PID.TID 0000.0001)                 3.093022830292655E+05,      /* J = 36 */
(PID.TID 0000.0001)                 3.066784576202870E+05,      /* J = 37 */
(PID.TID 0000.0001)                 3.033158169450409E+05,      /* J = 38 */
(PID.TID 0000.0001)                 2.992224618994463E+05,      /* J = 39 */
(PID.TID 0000.0001)                 2.944082537343438E+05,      /* J = 40 */
(PID.TID 0000.0001)                 2.888847902988777E+05,      /* J = 41 */
(PID.TID 0000.0001)                 2.826653781002625E+05,      /* J = 42 */
(PID.TID 0000.0001)                 2.757650002472408E+05,      /* J = 43 */
(PID.TID 0000.0001)                 2.682002803544621E+05,      /* J = 44 */
(PID.TID 0000.0001)                 2.599894424947394E+05,      /* J = 45 */
(PID.TID 0000.0001)                 2.511522672956614E+05,      /* J = 46 */
(PID.TID 0000.0001)                 2.417100442863276E+05,      /* J = 47 */
(PID.TID 0000.0001)                 2.316855206090084E+05,      /* J = 48 */
(PID.TID 0000.0001)                 2.211028462192875E+05,      /* J = 49 */
(PID.TID 0000.0001)                 2.099875157067021E+05,      /* J = 50 */
(PID.TID 0000.0001)                 1.983663068760452E+05,      /* J = 51 */
(PID.TID 0000.0001)                 1.862672162372875E+05,      /* J = 52 */
(PID.TID 0000.0001)                 1.737193915595329E+05,      /* J = 53 */
(PID.TID 0000.0001)                 1.607530616514898E+05,      /* J = 54 */
(PID.TID 0000.0001)                 1.473994635376230E+05,      /* J = 55 */
(PID.TID 0000.0001)                 1.336907672054259E+05,      /* J = 56 */
(PID.TID 0000.0001)                 1.196599981051027E+05,      /* J = 57 */
(PID.TID 0000.0001)                 1.053409575883663E+05,      /* J = 58 */
(PID.TID 0000.0001)                 9.076814147802138E+04,      /* J = 59 */
(PID.TID 0000.0001)                 7.597665696450579E+04,      /* J = 60 */
(PID.TID 0000.0001)                 6.100213802959342E+04,      /* J = 61 */
(PID.TID 0000.0001)                 4.588065960101153E+04,      /* J = 62 */
(PID.TID 0000.0001)                 3.064865064477965E+04,      /* J = 63 */
(PID.TID 0000.0001)                 1.534280640463982E+04       /* J = 64 */
(PID.TID 0000.0001)     ;
(PID.TID 0000.0001) dyG =  /* dyG(:,1,:,1) ( units: m ) */
(PID.TID 0000.0001)   128 @  3.126866438026091E+05              /* I =  1:128 */
(PID.TID 0000.0001)     ;
(PID.TID 0000.0001) dyG =  /* dyG(1,:,1,:) ( units: m ) */
(PID.TID 0000.0001)    64 @  3.126866438026091E+05              /* J =  1: 64 */
(PID.TID 0000.0001)     ;
(PID.TID 0000.0001) dxC =  /* dxC(:,1,:,1) ( units: m ) */
(PID.TID 0000.0001)   128 @  7.673714381622299E+03              /* I =  1:128 */
(PID.TID 0000.0001)     ;
(PID.TID 0000.0001) dxC =  /* dxC(1,:,1,:) ( units: m ) */
(PID.TID 0000.0001)                 7.673714381622299E+03,      /* J =  1 */
(PID.TID 0000.0001)                 2.300265649478360E+04,      /* J =  2 */
(PID.TID 0000.0001)                 3.827618319365421E+04,      /* J =  3 */
(PID.TID 0000.0001)                 5.345749921461356E+04,      /* J =  4 */
(PID.TID 0000.0001)                 6.851003143764105E+04,      /* J =  5 */
(PID.TID 0000.0001)                 8.339751699416524E+04,      /* J =  6 */
(PID.TID 0000.0001)                 9.808409062749069E+04,      /* J =  7 */
(PID.TID 0000.0001)                 1.125343710953429E+05,      /* J =  8 */
(PID.TID 0000.0001)                 1.267135464063795E+05,      /* J =  9 */
(PID.TID 0000.0001)                 1.405874576853274E+05,      /* J = 10 */
(PID.TID 0000.0001)                 1.541226814647045E+05,      /* J = 11 */
(PID.TID 0000.0001)                 1.672866102048805E+05,      /* J = 12 */
(PID.TID 0000.0001)                 1.800475308484964E+05,      /* J = 13 */
(PID.TID 0000.0001)                 1.923747012199971E+05,      /* J = 14 */
(PID.TID 0000.0001)                 2.042384240862252E+05,      /* J = 15 */
(PID.TID 0000.0001)                 2.156101186996563E+05,      /* J = 16 */
(PID.TID 0000.0001)                 2.264623896519241E+05,      /* J = 17 */
(PID.TID 0000.0001)                 2.367690928717577E+05,      /* J = 18 */
(PID.TID 0000.0001)                 2.465053986083400E+05,      /* J = 19 */
(PID.TID 0000.0001)                 2.556478512483520E+05,      /* J = 20 */
(PID.TID 0000.0001)                 2.641744258225996E+05,      /* J = 21 */
(PID.TID 0000.0001)                 2.720645810660936E+05,      /* J = 22 */
(PID.TID 0000.0001)                 2.792993089037565E+05,      /* J = 23 */
(PID.TID 0000.0001)                 2.858611802425402E+05,      /* J = 24 */
(PID.TID 0000.0001)                 2.917343869596373E+05,      /* J = 25 */
(PID.TID 0000.0001)                 2.969047799856344E+05,      /* J = 26 */
(PID.TID 0000.0001)                 3.013599033908587E+05,      /* J = 27 */
(PID.TID 0000.0001)                 3.050890243928043E+05,      /* J = 28 */
(PID.TID 0000.0001)                 3.080831592123453E+05,      /* J = 29 */
(PID.TID 0000.0001)                 3.103350947164461E+05,      /* J = 30 */
(PID.TID 0000.0001)                 3.118394057952309E+05,      /* J = 31 */
(PID.TID 0000.0001)     2 @  3.125924684315491E+05,             /* J = 32: 33 */
(PID.TID 0000.0001)                 3.118394057952309E+05,      /* J = 34 */
(PID.TID 0000.0001)                 3.103350947164461E+05,      /* J = 35 */
(PID.TID 0000.0001)                 3.080831592123453E+05,      /* J = 36 */
(PID.TID 0000.0001)                 3.050890243928043E+05,      /* J = 37 */
(PID.TID 0000.0001)                 3.013599033908587E+05,      /* J = 38 */
(PID.TID 0000.0001)                 2.969047799856344E+05,      /* J = 39 */
(PID.TID 0000.0001)                 2.917343869596373E+05,      /* J = 40 */
(PID.TID 0000.0001)                 2.858611802425402E+05,      /* J = 41 */
(PID.TID 0000.0001)                 2.792993089037565E+05,      /* J = 42 */
(PID.TID 0000.0001)                 2.720645810660936E+05,      /* J = 43 */
(PID.TID 0000.0001)                 2.641744258225996E+05,      /* J = 44 */
(PID.TID 0000.0001)                 2.556478512483520E+05,      /* J = 45 */
(PID.TID 0000.0001)                 2.465053986083400E+05,      /* J = 46 */
(PID.TID 0000.0001)                 2.367690928717577E+05,      /* J = 47 */
(PID.TID 0000.0001)                 2.264623896519241E+05,      /* J = 48 */
(PID.TID 0000.0001)                 2.156101186996563E+05,      /* J = 49 */
(PID.TID 0000.0001)                 2.042384240862252E+05,      /* J = 50 */
(PID.TID 0000.0001)                 1.923747012199971E+05,      /* J = 51 */
(PID.TID 0000.0001)                 1.800475308484964E+05,      /* J = 52 */
(PID.TID 0000.0001)                 1.672866102048805E+05,      /* J = 53 */
(PID.TID 0000.0001)                 1.541226814647045E+05,      /* J = 54 */
(PID.TID 0000.0001)                 1.405874576853274E+05,      /* J = 55 */
(PID.TID 0000.0001)                 1.267135464063795E+05,      /* J = 56 */
(PID.TID 0000.0001)                 1.125343710953429E+05,      /* J = 57 */
(PID.TID 0000.0001)                 9.808409062749069E+04,      /* J = 58 */
(PID.TID 0000.0001)                 8.339751699416524E+04,      /* J = 59 */
(PID.TID 0000.0001)                 6.851003143764105E+04,      /* J = 60 */
(PID.TID 0000.0001)                 5.345749921461356E+04,      /* J = 61 */
(PID.TID 0000.0001)                 3.827618319365421E+04,      /* J = 62 */
(PID.TID 0000.0001)                 2.300265649478360E+04,      /* J = 63 */
(PID.TID 0000.0001)                 7.673714381622299E+03       /* J = 64 */
(PID.TID 0000.0001)     ;
(PID.TID 0000.0001) dyC =  /* dyC(:,1,:,1) ( units: m ) */
(PID.TID 0000.0001)   128 @  3.126866438026091E+05              /* I =  1:128 */
(PID.TID 0000.0001)     ;
(PID.TID 0000.0001) dyC =  /* dyC(1,:,1,:) ( units: m ) */
(PID.TID 0000.0001)    64 @  3.126866438026091E+05              /* J =  1: 64 */
(PID.TID 0000.0001)     ;
(PID.TID 0000.0001) dxV =  /* dxV(:,1,:,1) ( units: m ) */
(PID.TID 0000.0001)   128 @  0.000000000000000E+00              /* I =  1:128 */
(PID.TID 0000.0001)     ;
(PID.TID 0000.0001) dxV =  /* dxV(1,:,1,:) ( units: m ) */
(PID.TID 0000.0001)                 0.000000000000000E+00,      /* J =  1 */
(PID.TID 0000.0001)                 1.534280640463982E+04,      /* J =  2 */
(PID.TID 0000.0001)                 3.064865064477965E+04,      /* J =  3 */
(PID.TID 0000.0001)                 4.588065960101153E+04,      /* J =  4 */
(PID.TID 0000.0001)                 6.100213802959342E+04,      /* J =  5 */
(PID.TID 0000.0001)                 7.597665696450579E+04,      /* J =  6 */
(PID.TID 0000.0001)                 9.076814147802138E+04,      /* J =  7 */
(PID.TID 0000.0001)                 1.053409575883663E+05,      /* J =  8 */
(PID.TID 0000.0001)                 1.196599981051027E+05,      /* J =  9 */
(PID.TID 0000.0001)                 1.336907672054259E+05,      /* J = 10 */
(PID.TID 0000.0001)                 1.473994635376230E+05,      /* J = 11 */
(PID.TID 0000.0001)                 1.607530616514898E+05,      /* J = 12 */
(PID.TID 0000.0001)                 1.737193915595329E+05,      /* J = 13 */
(PID.TID 0000.0001)                 1.862672162372875E+05,      /* J = 14 */
(PID.TID 0000.0001)                 1.983663068760452E+05,      /* J = 15 */
(PID.TID 0000.0001)                 2.099875157067021E+05,      /* J = 16 */
(PID.TID 0000.0001)                 2.211028462192875E+05,      /* J = 17 */
(PID.TID 0000.0001)                 2.316855206090084E+05,      /* J = 18 */
(PID.TID 0000.0001)                 2.417100442863276E+05,      /* J = 19 */
(PID.TID 0000.0001)                 2.511522672956614E+05,      /* J = 20 */
(PID.TID 0000.0001)                 2.599894424947394E+05,      /* J = 21 */
(PID.TID 0000.0001)                 2.682002803544621E+05,      /* J = 22 */
(PID.TID 0000.0001)                 2.757650002472408E+05,      /* J = 23 */
(PID.TID 0000.0001)                 2.826653781002625E+05,      /* J = 24 */
(PID.TID 0000.0001)                 2.888847902988777E+05,      /* J = 25 */
(PID.TID 0000.0001)                 2.944082537343438E+05,      /* J = 26 */
(PID.TID 0000.0001)                 2.992224618994463E+05,      /* J = 27 */
(PID.TID 0000.0001)                 3.033158169450409E+05,      /* J = 28 */
(PID.TID 0000.0001)                 3.066784576202870E+05,      /* J = 29 */
(PID.TID 0000.0001)                 3.093022830292655E+05,      /* J = 30 */
(PID.TID 0000.0001)                 3.111809721467461E+05,      /* J = 31 */
(PID.TID 0000.0001)                 3.123099990460912E+05,      /* J = 32 */
(PID.TID 0000.0001)                 3.126866438026091E+05,      /* J = 33 */
(PID.TID 0000.0001)                 3.123099990460912E+05,      /* J = 34 */
(PID.TID 0000.0001)                 3.111809721467461E+05,      /* J = 35 */
(PID.TID 0000.0001)                 3.093022830292655E+05,      /* J = 36 */
(PID.TID 0000.0001)                 3.066784576202870E+05,      /* J = 37 */
(PID.TID 0000.0001)                 3.033158169450409E+05,      /* J = 38 */
(PID.TID 0000.0001)                 2.992224618994463E+05,      /* J = 39 */
(PID.TID 0000.0001)                 2.944082537343438E+05,      /* J = 40 */
(PID.TID 0000.0001)                 2.888847902988777E+05,      /* J = 41 */
(PID.TID 0000.0001)                 2.826653781002625E+05,      /* J = 42 */
(PID.TID 0000.0001)                 2.757650002472408E+05,      /* J = 43 */
(PID.TID 0000.0001)                 2.682002803544621E+05,      /* J = 44 */
(PID.TID 0000.0001)                 2.599894424947394E+05,      /* J = 45 */
(PID.TID 0000.0001)                 2.511522672956614E+05,      /* J = 46 */
(PID.TID 0000.0001)                 2.417100442863276E+05,      /* J = 47 */
(PID.TID 0000.0001)                 2.316855206090084E+05,      /* J = 48 */
(PID.TID 0000.0001)                 2.211028462192875E+05,      /* J = 49 */
(PID.TID 0000.0001)                 2.099875157067021E+05,      /* J = 50 */
(PID.TID 0000.0001)                 1.983663068760452E+05,      /* J = 51 */
(PID.TID 0000.0001)                 1.862672162372875E+05,      /* J = 52 */
(PID.TID 0000.0001)                 1.737193915595329E+05,      /* J = 53 */
(PID.TID 0000.0001)                 1.607530616514898E+05,      /* J = 54 */
(PID.TID 0000.0001)                 1.473994635376230E+05,      /* J = 55 */
(PID.TID 0000.0001)                 1.336907672054259E+05,      /* J = 56 */
(PID.TID 0000.0001)                 1.196599981051027E+05,      /* J = 57 */
(PID.TID 0000.0001)                 1.053409575883663E+05,      /* J = 58 */
(PID.TID 0000.0001)                 9.076814147802138E+04,      /* J = 59 */
(PID.TID 0000.0001)                 7.597665696450579E+04,      /* J = 60 */
(PID.TID 0000.0001)                 6.100213802959342E+04,      /* J = 61 */
(PID.TID 0000.0001)                 4.588065960101153E+04,      /* J = 62 */
(PID.TID 0000.0001)                 3.064865064477965E+04,      /* J = 63 */
(PID.TID 0000.0001)                 1.534280640463982E+04       /* J = 64 */
(PID.TID 0000.0001)     ;
(PID.TID 0000.0001) dyU =  /* dyU(:,1,:,1) ( units: m ) */
(PID.TID 0000.0001)   128 @  3.126866438026091E+05              /* I =  1:128 */
(PID.TID 0000.0001)     ;
(PID.TID 0000.0001) dyU =  /* dyU(1,:,1,:) ( units: m ) */
(PID.TID 0000.0001)    64 @  3.126866438026091E+05              /* J =  1: 64 */
(PID.TID 0000.0001)     ;
(PID.TID 0000.0001) rA  =  /* rA (:,1,:,1) ( units: m^2 ) */
(PID.TID 0000.0001)   128 @  2.399227099019018E+09              /* I =  1:128 */
(PID.TID 0000.0001)     ;
(PID.TID 0000.0001) rA  =  /* rA (1,:,1,:) ( units: m^2 ) */
(PID.TID 0000.0001)                 2.399227099019018E+09,      /* J =  1 */
(PID.TID 0000.0001)                 7.191901348828056E+09,      /* J =  2 */
(PID.TID 0000.0001)                 1.196724967835171E+10,      /* J =  3 */
(PID.TID 0000.0001)                 1.671376785519299E+10,      /* J =  4 */
(PID.TID 0000.0001)                 2.142002110131771E+10,      /* J =  5 */
(PID.TID 0000.0001)                 2.607467164043704E+10,      /* J =  6 */
(PID.TID 0000.0001)                 3.066650601170349E+10,      /* J =  7 */
(PID.TID 0000.0001)                 3.518446208391881E+10,      /* J =  8 */
(PID.TID 0000.0001)                 3.961765570517892E+10,      /* J =  9 */
(PID.TID 0000.0001)                 4.395540692374860E+10,      /* J = 10 */
(PID.TID 0000.0001)                 4.818726571700000E+10,      /* J = 11 */
(PID.TID 0000.0001)                 5.230303716643355E+10,      /* J = 12 */
(PID.TID 0000.0001)                 5.629280601812719E+10,      /* J = 13 */
(PID.TID 0000.0001)                 6.014696056945681E+10,      /* J = 14 */
(PID.TID 0000.0001)                 6.385621582452237E+10,      /* J = 15 */
(PID.TID 0000.0001)                 6.741163586252281E+10,      /* J = 16 */
(PID.TID 0000.0001)                 7.080465536516846E+10,      /* J = 17 */
(PID.TID 0000.0001)                 7.402710025128452E+10,      /* J = 18 */
(PID.TID 0000.0001)                 7.707120736888658E+10,      /* J = 19 */
(PID.TID 0000.0001)                 7.992964319729683E+10,      /* J = 20 */
(PID.TID 0000.0001)                 8.259552151423444E+10,      /* J = 21 */
(PID.TID 0000.0001)                 8.506241998533159E+10,      /* J = 22 */
(PID.TID 0000.0001)                 8.732439563609566E+10,      /* J = 23 */
(PID.TID 0000.0001)                 8.937599916905872E+10,      /* J = 24 */
(PID.TID 0000.0001)                 9.121228809161066E+10,      /* J = 25 */
(PID.TID 0000.0001)                 9.282883862289705E+10,      /* J = 26 */
(PID.TID 0000.0001)                 9.422175635109474E+10,      /* J = 27 */
(PID.TID 0000.0001)                 9.538768561539165E+10,      /* J = 28 */
(PID.TID 0000.0001)                 9.632381759006650E+10,      /* J = 29 */
(PID.TID 0000.0001)                 9.702789705119698E+10,      /* J = 30 */
(PID.TID 0000.0001)                 9.749822780969106E+10,      /* J = 31 */
(PID.TID 0000.0001)     2 @  9.773367679755542E+10,             /* J = 32: 33 */
(PID.TID 0000.0001)                 9.749822780969106E+10,      /* J = 34 */
(PID.TID 0000.0001)                 9.702789705119698E+10,      /* J = 35 */
(PID.TID 0000.0001)                 9.632381759006650E+10,      /* J = 36 */
(PID.TID 0000.0001)                 9.538768561539165E+10,      /* J = 37 */
(PID.TID 0000.0001)                 9.422175635109474E+10,      /* J = 38 */
(PID.TID 0000.0001)                 9.282883862289705E+10,      /* J = 39 */
(PID.TID 0000.0001)                 9.121228809161066E+10,      /* J = 40 */
(PID.TID 0000.0001)                 8.937599916905872E+10,      /* J = 41 */
(PID.TID 0000.0001)                 8.732439563609566E+10,      /* J = 42 */
(PID.TID 0000.0001)                 8.506241998533159E+10,      /* J = 43 */
(PID.TID 0000.0001)                 8.259552151423444E+10,      /* J = 44 */
(PID.TID 0000.0001)                 7.992964319729683E+10,      /* J = 45 */
(PID.TID 0000.0001)                 7.707120736888658E+10,      /* J = 46 */
(PID.TID 0000.0001)                 7.402710025128452E+10,      /* J = 47 */
(PID.TID 0000.0001)                 7.080465536516846E+10,      /* J = 48 */
(PID.TID 0000.0001)                 6.741163586252281E+10,      /* J = 49 */
(PID.TID 0000.0001)                 6.385621582452237E+10,      /* J = 50 */
(PID.TID 0000.0001)                 6.014696056945681E+10,      /* J = 51 */
(PID.TID 0000.0001)                 5.629280601812719E+10,      /* J = 52 */
(PID.TID 0000.0001)                 5.230303716643355E+10,      /* J = 53 */
(PID.TID 0000.0001)                 4.818726571700000E+10,      /* J = 54 */
(PID.TID 0000.0001)                 4.395540692374860E+10,      /* J = 55 */
(PID.TID 0000.0001)                 3.961765570517892E+10,      /* J = 56 */
(PID.TID 0000.0001)                 3.518446208391881E+10,      /* J = 57 */
(PID.TID 0000.0001)                 3.066650601170349E+10,      /* J = 58 */
(PID.TID 0000.0001)                 2.607467164043704E+10,      /* J = 59 */
(PID.TID 0000.0001)                 2.142002110131771E+10,      /* J = 60 */
(PID.TID 0000.0001)                 1.671376785519299E+10,      /* J = 61 */
(PID.TID 0000.0001)                 1.196724967835171E+10,      /* J = 62 */
(PID.TID 0000.0001)                 7.191901348828056E+09,      /* J = 63 */
(PID.TID 0000.0001)                 2.399227099019018E+09       /* J = 64 */
(PID.TID 0000.0001)     ;
(PID.TID 0000.0001) rAw =  /* rAw(:,1,:,1) ( units: m^2 ) */
(PID.TID 0000.0001)   128 @  2.399227099019018E+09              /* I =  1:128 */
(PID.TID 0000.0001)     ;
(PID.TID 0000.0001) rAw =  /* rAw(1,:,1,:) ( units: m^2 ) */
(PID.TID 0000.0001)                 2.399227099019018E+09,      /* J =  1 */
(PID.TID 0000.0001)                 7.191901348828056E+09,      /* J =  2 */
(PID.TID 0000.0001)                 1.196724967835171E+10,      /* J =  3 */
(PID.TID 0000.0001)                 1.671376785519299E+10,      /* J =  4 */
(PID.TID 0000.0001)                 2.142002110131771E+10,      /* J =  5 */
(PID.TID 0000.0001)                 2.607467164043704E+10,      /* J =  6 */
(PID.TID 0000.0001)                 3.066650601170349E+10,      /* J =  7 */
(PID.TID 0000.0001)                 3.518446208391881E+10,      /* J =  8 */
(PID.TID 0000.0001)                 3.961765570517892E+10,      /* J =  9 */
(PID.TID 0000.0001)                 4.395540692374860E+10,      /* J = 10 */
(PID.TID 0000.0001)                 4.818726571700000E+10,      /* J = 11 */
(PID.TID 0000.0001)                 5.230303716643355E+10,      /* J = 12 */
(PID.TID 0000.0001)                 5.629280601812719E+10,      /* J = 13 */
(PID.TID 0000.0001)                 6.014696056945681E+10,      /* J = 14 */
(PID.TID 0000.0001)                 6.385621582452237E+10,      /* J = 15 */
(PID.TID 0000.0001)                 6.741163586252281E+10,      /* J = 16 */
(PID.TID 0000.0001)                 7.080465536516846E+10,      /* J = 17 */
(PID.TID 0000.0001)                 7.402710025128452E+10,      /* J = 18 */
(PID.TID 0000.0001)                 7.707120736888658E+10,      /* J = 19 */
(PID.TID 0000.0001)                 7.992964319729683E+10,      /* J = 20 */
(PID.TID 0000.0001)                 8.259552151423444E+10,      /* J = 21 */
(PID.TID 0000.0001)                 8.506241998533159E+10,      /* J = 22 */
(PID.TID 0000.0001)                 8.732439563609566E+10,      /* J = 23 */
(PID.TID 0000.0001)                 8.937599916905872E+10,      /* J = 24 */
(PID.TID 0000.0001)                 9.121228809161066E+10,      /* J = 25 */
(PID.TID 0000.0001)                 9.282883862289705E+10,      /* J = 26 */
(PID.TID 0000.0001)                 9.422175635109474E+10,      /* J = 27 */
(PID.TID 0000.0001)                 9.538768561539165E+10,      /* J = 28 */
(PID.TID 0000.0001)                 9.632381759006650E+10,      /* J = 29 */
(PID.TID 0000.0001)                 9.702789705119698E+10,      /* J = 30 */
(PID.TID 0000.0001)                 9.749822780969106E+10,      /* J = 31 */
(PID.TID 0000.0001)     2 @  9.773367679755542E+10,             /* J = 32: 33 */
(PID.TID 0000.0001)                 9.749822780969106E+10,      /* J = 34 */
(PID.TID 0000.0001)                 9.702789705119698E+10,      /* J = 35 */
(PID.TID 0000.0001)                 9.632381759006650E+10,      /* J = 36 */
(PID.TID 0000.0001)                 9.538768561539165E+10,      /* J = 37 */
(PID.TID 0000.0001)                 9.422175635109474E+10,      /* J = 38 */
(PID.TID 0000.0001)                 9.282883862289705E+10,      /* J = 39 */
(PID.TID 0000.0001)                 9.121228809161066E+10,      /* J = 40 */
(PID.TID 0000.0001)                 8.937599916905872E+10,      /* J = 41 */
(PID.TID 0000.0001)                 8.732439563609566E+10,      /* J = 42 */
(PID.TID 0000.0001)                 8.506241998533159E+10,      /* J = 43 */
(PID.TID 0000.0001)                 8.259552151423444E+10,      /* J = 44 */
(PID.TID 0000.0001)                 7.992964319729683E+10,      /* J = 45 */
(PID.TID 0000.0001)                 7.707120736888658E+10,      /* J = 46 */
(PID.TID 0000.0001)                 7.402710025128452E+10,      /* J = 47 */
(PID.TID 0000.0001)                 7.080465536516846E+10,      /* J = 48 */
(PID.TID 0000.0001)                 6.741163586252281E+10,      /* J = 49 */
(PID.TID 0000.0001)                 6.385621582452237E+10,      /* J = 50 */
(PID.TID 0000.0001)                 6.014696056945681E+10,      /* J = 51 */
(PID.TID 0000.0001)                 5.629280601812719E+10,      /* J = 52 */
(PID.TID 0000.0001)                 5.230303716643355E+10,      /* J = 53 */
(PID.TID 0000.0001)                 4.818726571700000E+10,      /* J = 54 */
(PID.TID 0000.0001)                 4.395540692374860E+10,      /* J = 55 */
(PID.TID 0000.0001)                 3.961765570517892E+10,      /* J = 56 */
(PID.TID 0000.0001)                 3.518446208391881E+10,      /* J = 57 */
(PID.TID 0000.0001)                 3.066650601170349E+10,      /* J = 58 */
(PID.TID 0000.0001)                 2.607467164043704E+10,      /* J = 59 */
(PID.TID 0000.0001)                 2.142002110131771E+10,      /* J = 60 */
(PID.TID 0000.0001)                 1.671376785519299E+10,      /* J = 61 */
(PID.TID 0000.0001)                 1.196724967835171E+10,      /* J = 62 */
(PID.TID 0000.0001)                 7.191901348828056E+09,      /* J = 63 */
(PID.TID 0000.0001)                 2.399227099019018E+09       /* J = 64 */
(PID.TID 0000.0001)     ;
(PID.TID 0000.0001) rAs =  /* rAs(:,1,:,1) ( units: m^2 ) */
(PID.TID 0000.0001)   128 @  0.000000000000000E+00              /* I =  1:128 */
(PID.TID 0000.0001)     ;
(PID.TID 0000.0001) rAs =  /* rAs(1,:,1,:) ( units: m^2 ) */
(PID.TID 0000.0001)                 0.000000000000000E+00,      /* J =  1 */
(PID.TID 0000.0001)                 4.797008993346594E+09,      /* J =  2 */
(PID.TID 0000.0001)                 9.582461571859739E+09,      /* J =  3 */
(PID.TID 0000.0001)                 1.434482916112175E+10,      /* J =  4 */
(PID.TID 0000.0001)                 1.907263880047594E+10,      /* J =  5 */
(PID.TID 0000.0001)                 2.375450078239423E+10,      /* J =  6 */
(PID.TID 0000.0001)                 2.837913609127881E+10,      /* J =  7 */
(PID.TID 0000.0001)                 3.293540357560110E+10,      /* J =  8 */
(PID.TID 0000.0001)                 3.741232678790870E+10,      /* J =  9 */
(PID.TID 0000.0001)                 4.179912042805190E+10,      /* J = 10 */
(PID.TID 0000.0001)                 4.608521632591324E+10,      /* J = 11 */
(PID.TID 0000.0001)                 5.026028890105701E+10,      /* J = 12 */
(PID.TID 0000.0001)                 5.431428003795675E+10,      /* J = 13 */
(PID.TID 0000.0001)                 5.823742331687641E+10,      /* J = 14 */
(PID.TID 0000.0001)                 6.202026754202965E+10,      /* J = 15 */
(PID.TID 0000.0001)                 6.565369951034003E+10,      /* J = 16 */
(PID.TID 0000.0001)                 6.912896596594559E+10,      /* J = 17 */
(PID.TID 0000.0001)                 7.243769468755632E+10,      /* J = 18 */
(PID.TID 0000.0001)                 7.557191465787256E+10,      /* J = 19 */
(PID.TID 0000.0001)                 7.852407526645966E+10,      /* J = 20 */
(PID.TID 0000.0001)                 8.128706449983365E+10,      /* J = 21 */
(PID.TID 0000.0001)                 8.385422607492096E+10,      /* J = 22 */
(PID.TID 0000.0001)                 8.621937547463148E+10,      /* J = 23 */
(PID.TID 0000.0001)                 8.837681484689812E+10,      /* J = 24 */
(PID.TID 0000.0001)                 9.032134673130376E+10,      /* J = 25 */
(PID.TID 0000.0001)                 9.204828658021815E+10,      /* J = 26 */
(PID.TID 0000.0001)                 9.355347404428317E+10,      /* J = 27 */
(PID.TID 0000.0001)                 9.483328299505896E+10,      /* J = 28 */
(PID.TID 0000.0001)                 9.588463026068500E+10,      /* J = 29 */
(PID.TID 0000.0001)                 9.670498305351135E+10,      /* J = 30 */
(PID.TID 0000.0001)                 9.729236507180571E+10,      /* J = 31 */
(PID.TID 0000.0001)                 9.764536126083739E+10,      /* J = 32 */
(PID.TID 0000.0001)                 9.776312122186816E+10,      /* J = 33 */
(PID.TID 0000.0001)                 9.764536126083739E+10,      /* J = 34 */
(PID.TID 0000.0001)                 9.729236507180571E+10,      /* J = 35 */
(PID.TID 0000.0001)                 9.670498305351135E+10,      /* J = 36 */
(PID.TID 0000.0001)                 9.588463026068500E+10,      /* J = 37 */
(PID.TID 0000.0001)                 9.483328299505896E+10,      /* J = 38 */
(PID.TID 0000.0001)                 9.355347404428317E+10,      /* J = 39 */
(PID.TID 0000.0001)                 9.204828658021815E+10,      /* J = 40 */
(PID.TID 0000.0001)                 9.032134673130376E+10,      /* J = 41 */
(PID.TID 0000.0001)                 8.837681484689812E+10,      /* J = 42 */
(PID.TID 0000.0001)                 8.621937547463148E+10,      /* J = 43 */
(PID.TID 0000.0001)                 8.385422607492096E+10,      /* J = 44 */
(PID.TID 0000.0001)                 8.128706449983365E+10,      /* J = 45 */
(PID.TID 0000.0001)                 7.852407526645966E+10,      /* J = 46 */
(PID.TID 0000.0001)                 7.557191465787256E+10,      /* J = 47 */
(PID.TID 0000.0001)                 7.243769468755632E+10,      /* J = 48 */
(PID.TID 0000.0001)                 6.912896596594559E+10,      /* J = 49 */
(PID.TID 0000.0001)                 6.565369951034003E+10,      /* J = 50 */
(PID.TID 0000.0001)                 6.202026754202965E+10,      /* J = 51 */
(PID.TID 0000.0001)                 5.823742331687641E+10,      /* J = 52 */
(PID.TID 0000.0001)                 5.431428003795675E+10,      /* J = 53 */
(PID.TID 0000.0001)                 5.026028890105701E+10,      /* J = 54 */
(PID.TID 0000.0001)                 4.608521632591324E+10,      /* J = 55 */
(PID.TID 0000.0001)                 4.179912042805190E+10,      /* J = 56 */
(PID.TID 0000.0001)                 3.741232678790870E+10,      /* J = 57 */
(PID.TID 0000.0001)                 3.293540357560110E+10,      /* J = 58 */
(PID.TID 0000.0001)                 2.837913609127881E+10,      /* J = 59 */
(PID.TID 0000.0001)                 2.375450078239423E+10,      /* J = 60 */
(PID.TID 0000.0001)                 1.907263880047594E+10,      /* J = 61 */
(PID.TID 0000.0001)                 1.434482916112175E+10,      /* J = 62 */
(PID.TID 0000.0001)                 9.582461571859739E+09,      /* J = 63 */
(PID.TID 0000.0001)                 4.797008993346594E+09       /* J = 64 */
(PID.TID 0000.0001)     ;
(PID.TID 0000.0001) globalArea = /* Integrated horizontal Area (m^2) */
(PID.TID 0000.0001)                 3.303322488638320E+14
(PID.TID 0000.0001)     ;
(PID.TID 0000.0001) // =======================================================
(PID.TID 0000.0001) // End of Model config. summary
(PID.TID 0000.0001) // =======================================================
(PID.TID 0000.0001) 
(PID.TID 0000.0001) == Packages configuration : Check & print summary ==
(PID.TID 0000.0001) 
(PID.TID 0000.0001) GGL90_CHECK: #define ALLOW_GGL90
(PID.TID 0000.0001) GGL90_CHECK: Some form of convection has been enabled
(PID.TID 0000.0001) GMREDI_CHECK: #define GMREDI
(PID.TID 0000.0001) GM_AdvForm =     /* if FALSE => use SkewFlux Form */
(PID.TID 0000.0001)                   F
(PID.TID 0000.0001)     ;
(PID.TID 0000.0001) GM_InMomAsStress = /* if TRUE => apply as Eddy Stress */
(PID.TID 0000.0001)                   F
(PID.TID 0000.0001)     ;
(PID.TID 0000.0001) GM_AdvSeparate = /* Calc Bolus & Euler Adv. separately */
(PID.TID 0000.0001)                   F
(PID.TID 0000.0001)     ;
(PID.TID 0000.0001) GM_ExtraDiag =   /* Tensor Extra Diag (line 1&2) non 0 */
(PID.TID 0000.0001)                   F
(PID.TID 0000.0001)     ;
(PID.TID 0000.0001) GM_isopycK =    /* Background Isopyc. Diffusivity [m^2/s] */
(PID.TID 0000.0001)                 1.000000000000000E+03
(PID.TID 0000.0001)     ;
(PID.TID 0000.0001) GM_skewflx*K =  /* Background GM_SkewFlx Diffusivity [m^2/s] */
(PID.TID 0000.0001)                 1.000000000000000E+03
(PID.TID 0000.0001)     ;
(PID.TID 0000.0001) GM_advec*K =    /* Backg. GM-Advec(=Bolus) Diffusivity [m^2/s]*/
(PID.TID 0000.0001)                 0.000000000000000E+00
(PID.TID 0000.0001)     ;
(PID.TID 0000.0001) GM_Kmin_horiz = /* Minimum Horizontal Diffusivity [m^2/s] */
(PID.TID 0000.0001)                 1.000000000000000E+02
(PID.TID 0000.0001)     ;
(PID.TID 0000.0001) GM_Visbeck_alpha = /* Visbeck alpha coeff. [-] */
(PID.TID 0000.0001)                 0.000000000000000E+00
(PID.TID 0000.0001)     ;
(PID.TID 0000.0001) GM_Small_Number =  /* epsilon used in slope calc */
(PID.TID 0000.0001)                 9.999999999999999E-21
(PID.TID 0000.0001)     ;
(PID.TID 0000.0001) GM_slopeSqCutoff = /* Slope^2 cut-off value */
(PID.TID 0000.0001)                 1.000000000000000E+48
(PID.TID 0000.0001)     ;
(PID.TID 0000.0001) GM_taper_scheme =  /* Type of Tapering/Clipping scheme */
(PID.TID 0000.0001)               'gkw91                                   '
(PID.TID 0000.0001)     ;
(PID.TID 0000.0001) GM_maxSlope =  /* Maximum Slope (Tapering/Clipping) */
(PID.TID 0000.0001)                 1.000000000000000E-02
(PID.TID 0000.0001)     ;
(PID.TID 0000.0001) GM_facTrL2dz = /* Minimum Trans.Layer Thick. (factor of dz) */
(PID.TID 0000.0001)                 1.000000000000000E+00
(PID.TID 0000.0001)     ;
(PID.TID 0000.0001) GM_facTrL2ML = /* Max.Trans.Layer Thick. (factor of MxL Depth)*/
(PID.TID 0000.0001)                 5.000000000000000E+00
(PID.TID 0000.0001)     ;
(PID.TID 0000.0001) GM_maxTransLay = /* Maximum Transition Layer Thickness [m] */
(PID.TID 0000.0001)                 5.000000000000000E+02
(PID.TID 0000.0001)     ;
(PID.TID 0000.0001) GM_UseBVP = /* if TRUE => use bvp a la Ferrari et al. (2010) */
(PID.TID 0000.0001)                   F
(PID.TID 0000.0001)     ;
(PID.TID 0000.0001) GM_BVP_ModeNumber = /* Vertical mode number for BVP wave speed */
(PID.TID 0000.0001)                       1
(PID.TID 0000.0001)     ;
(PID.TID 0000.0001) GM_BVP_cMin = /* Minimum wave speed for BVP [m/s] */
(PID.TID 0000.0001)                 1.000000000000000E-01
(PID.TID 0000.0001)     ;
(PID.TID 0000.0001) GM_useSubMeso = /* if TRUE => use Sub-Meso param. (B.Fox-Kemper) */
(PID.TID 0000.0001)                   F
(PID.TID 0000.0001)     ;
(PID.TID 0000.0001) subMeso_Ceff = /* efficiency coeff. of Mixed-Layer Eddies [-] */
(PID.TID 0000.0001)                 7.000000000000001E-02
(PID.TID 0000.0001)     ;
(PID.TID 0000.0001) subMeso_invTau = /* inverse of Sub-Meso mixing time-scale [/s] */
(PID.TID 0000.0001)                 2.000000000000000E-06
(PID.TID 0000.0001)     ;
(PID.TID 0000.0001) subMeso_LfMin = /* minimum length-scale "Lf" [m] */
(PID.TID 0000.0001)                 1.000000000000000E+03
(PID.TID 0000.0001)     ;
(PID.TID 0000.0001) subMeso_Lmax = /* maximum grid-scale length [m] */
(PID.TID 0000.0001)                 1.100000000000000E+05
(PID.TID 0000.0001)     ;
(PID.TID 0000.0001) EXF_CHECK: #define ALLOW_EXF
(PID.TID 0000.0001) PTRACERS_CHECK: #define ALLOW_PTRACERS
(PID.TID 0000.0001) // ===================================
(PID.TID 0000.0001) // PTRACERS parameters
(PID.TID 0000.0001) // ===================================
(PID.TID 0000.0001) PTRACERS_numInUse = /* number of tracers */
(PID.TID 0000.0001)                      39
(PID.TID 0000.0001)     ;
(PID.TID 0000.0001) PTRACERS_Iter0 = /* timestep number when tracers are initialized */
(PID.TID 0000.0001)                       0
(PID.TID 0000.0001)     ;
(PID.TID 0000.0001) PTRACERS_startAllTrc =/* all tracers start @ startTime */
(PID.TID 0000.0001)                   T
(PID.TID 0000.0001)     ;
(PID.TID 0000.0001) PTRACERS_doAB_onGpTr =/* apply AB on Tendencies (rather than on Tracers) */
(PID.TID 0000.0001)                   T
(PID.TID 0000.0001)     ;
(PID.TID 0000.0001) PTRACERS_addSrelax2EmP =/* add Salt relaxation to EmP */
(PID.TID 0000.0001)                   F
(PID.TID 0000.0001)     ;
(PID.TID 0000.0001) PTRACERS_dTLev =   /* Ptracer timestep ( s ) */
(PID.TID 0000.0001)    15 @  9.000000000000000E+02              /* K =  1: 15 */
(PID.TID 0000.0001)     ;
(PID.TID 0000.0001) PTRACERS_monitorFreq = /* Frequency^-1 for monitor output (s) */
(PID.TID 0000.0001)                 1.000000000000000E+00
(PID.TID 0000.0001)     ;
(PID.TID 0000.0001) PTRACERS_dumpFreq = /* Frequency^-1 for snapshot output (s) */
(PID.TID 0000.0001)                 0.000000000000000E+00
(PID.TID 0000.0001)     ;
(PID.TID 0000.0001) PTRACERS_taveFreq = /* Frequency^-1 for time-Aver. output (s) */
(PID.TID 0000.0001)                 0.000000000000000E+00
(PID.TID 0000.0001)     ;
(PID.TID 0000.0001) PTRACERS_useRecords = /* all tracers in 1 file */
(PID.TID 0000.0001)                   F
(PID.TID 0000.0001)     ;
(PID.TID 0000.0001) PTRACERS_timeave_mnc = /* use MNC for Tave output */
(PID.TID 0000.0001)                   F
(PID.TID 0000.0001)     ;
(PID.TID 0000.0001) PTRACERS_snapshot_mnc = /* use MNC for snapshot output */
(PID.TID 0000.0001)                   F
(PID.TID 0000.0001)     ;
(PID.TID 0000.0001) PTRACERS_pickup_write_mnc = /* use MNC for writing pickups */
(PID.TID 0000.0001)                   F
(PID.TID 0000.0001)     ;
(PID.TID 0000.0001) PTRACERS_pickup_read_mnc = /* use MNC for reading pickups */
(PID.TID 0000.0001)                   F
(PID.TID 0000.0001)     ;
(PID.TID 0000.0001)  -----------------------------------
(PID.TID 0000.0001)  tracer number :    1
(PID.TID 0000.0001) PTRACERS_names = /* Tracer short name */
(PID.TID 0000.0001)               'PO4'
(PID.TID 0000.0001)     ;
(PID.TID 0000.0001) PTRACERS_long_names = /* Tracer long name */
(PID.TID 0000.0001)               ''
(PID.TID 0000.0001)     ;
(PID.TID 0000.0001) PTRACERS_ioLabel = /* tracer IO Label */
(PID.TID 0000.0001)               '01'
(PID.TID 0000.0001)     ;
(PID.TID 0000.0001) PTRACERS_advScheme = /* Advection Scheme */
(PID.TID 0000.0001)                      33
(PID.TID 0000.0001)     ;
(PID.TID 0000.0001) PTRACERS_SOM_Advection = /* tracer uses SOM advection scheme */
(PID.TID 0000.0001)                   F
(PID.TID 0000.0001)     ;
(PID.TID 0000.0001) PTRACERS_ImplVertAdv = /* implicit vert. advection flag */
(PID.TID 0000.0001)                   F
(PID.TID 0000.0001)     ;
(PID.TID 0000.0001) PTRACERS_MultiDimAdv = /* tracer uses Multi-Dim advection */
(PID.TID 0000.0001)                   T
(PID.TID 0000.0001)     ;
(PID.TID 0000.0001) PTRACERS_AdamsBashGtr = /* apply AB on tracer tendency */
(PID.TID 0000.0001)                   F
(PID.TID 0000.0001)     ;
(PID.TID 0000.0001) PTRACERS_AdamsBash_Tr = /* apply AB on passive tracer */
(PID.TID 0000.0001)                   F
(PID.TID 0000.0001)     ;
(PID.TID 0000.0001) PTRACERS_diffKh = /* Laplacian Diffusivity */
(PID.TID 0000.0001)                 0.000000000000000E+00
(PID.TID 0000.0001)     ;
(PID.TID 0000.0001) PTRACERS_diffK4 = /* Biharmonic Diffusivity */
(PID.TID 0000.0001)                 0.000000000000000E+00
(PID.TID 0000.0001)     ;
(PID.TID 0000.0001) PTRACERS_diffKrNr = /* Vertical Diffusivity */
(PID.TID 0000.0001)    15 @  1.000000000000000E-05              /* K =  1: 15 */
(PID.TID 0000.0001)     ;
(PID.TID 0000.0001) PTRACERS_useGMRedi = /* apply GM-Redi */
(PID.TID 0000.0001)                   T
(PID.TID 0000.0001)     ;
(PID.TID 0000.0001) PTRACERS_useDWNSLP = /* apply DOWN-SLOPE Flow */
(PID.TID 0000.0001)                   F
(PID.TID 0000.0001)     ;
(PID.TID 0000.0001) PTRACERS_useKPP = /* apply KPP scheme */
(PID.TID 0000.0001)                   F
(PID.TID 0000.0001)     ;
(PID.TID 0000.0001) PTRACERS_ref = /* Reference vertical profile */
(PID.TID 0000.0001)    15 @  0.000000000000000E+00              /* K =  1: 15 */
(PID.TID 0000.0001)     ;
(PID.TID 0000.0001) PTRACERS_EvPrRn =/* tracer conc. in Evap. & Rain */
(PID.TID 0000.0001)                 1.234567000000000E+05
(PID.TID 0000.0001)     ;
(PID.TID 0000.0001)  -----------------------------------
(PID.TID 0000.0001)  tracer number :    2
(PID.TID 0000.0001) PTRACERS_names = /* Tracer short name */
(PID.TID 0000.0001)               'NO3'
(PID.TID 0000.0001)     ;
(PID.TID 0000.0001) PTRACERS_long_names = /* Tracer long name */
(PID.TID 0000.0001)               ''
(PID.TID 0000.0001)     ;
(PID.TID 0000.0001) PTRACERS_ioLabel = /* tracer IO Label */
(PID.TID 0000.0001)               '02'
(PID.TID 0000.0001)     ;
(PID.TID 0000.0001) PTRACERS_advScheme = /* Advection Scheme */
(PID.TID 0000.0001)                      33
(PID.TID 0000.0001)     ;
(PID.TID 0000.0001) PTRACERS_SOM_Advection = /* tracer uses SOM advection scheme */
(PID.TID 0000.0001)                   F
(PID.TID 0000.0001)     ;
(PID.TID 0000.0001) PTRACERS_ImplVertAdv = /* implicit vert. advection flag */
(PID.TID 0000.0001)                   F
(PID.TID 0000.0001)     ;
(PID.TID 0000.0001) PTRACERS_MultiDimAdv = /* tracer uses Multi-Dim advection */
(PID.TID 0000.0001)                   T
(PID.TID 0000.0001)     ;
(PID.TID 0000.0001) PTRACERS_AdamsBashGtr = /* apply AB on tracer tendency */
(PID.TID 0000.0001)                   F
(PID.TID 0000.0001)     ;
(PID.TID 0000.0001) PTRACERS_AdamsBash_Tr = /* apply AB on passive tracer */
(PID.TID 0000.0001)                   F
(PID.TID 0000.0001)     ;
(PID.TID 0000.0001) PTRACERS_diffKh = /* Laplacian Diffusivity */
(PID.TID 0000.0001)                 0.000000000000000E+00
(PID.TID 0000.0001)     ;
(PID.TID 0000.0001) PTRACERS_diffK4 = /* Biharmonic Diffusivity */
(PID.TID 0000.0001)                 0.000000000000000E+00
(PID.TID 0000.0001)     ;
(PID.TID 0000.0001) PTRACERS_diffKrNr = /* Vertical Diffusivity */
(PID.TID 0000.0001)    15 @  1.000000000000000E-05              /* K =  1: 15 */
(PID.TID 0000.0001)     ;
(PID.TID 0000.0001) PTRACERS_useGMRedi = /* apply GM-Redi */
(PID.TID 0000.0001)                   T
(PID.TID 0000.0001)     ;
(PID.TID 0000.0001) PTRACERS_useDWNSLP = /* apply DOWN-SLOPE Flow */
(PID.TID 0000.0001)                   F
(PID.TID 0000.0001)     ;
(PID.TID 0000.0001) PTRACERS_useKPP = /* apply KPP scheme */
(PID.TID 0000.0001)                   F
(PID.TID 0000.0001)     ;
(PID.TID 0000.0001) PTRACERS_ref = /* Reference vertical profile */
(PID.TID 0000.0001)    15 @  0.000000000000000E+00              /* K =  1: 15 */
(PID.TID 0000.0001)     ;
(PID.TID 0000.0001) PTRACERS_EvPrRn =/* tracer conc. in Evap. & Rain */
(PID.TID 0000.0001)                 1.234567000000000E+05
(PID.TID 0000.0001)     ;
(PID.TID 0000.0001)  -----------------------------------
(PID.TID 0000.0001)  tracer number :    3
(PID.TID 0000.0001) PTRACERS_names = /* Tracer short name */
(PID.TID 0000.0001)               'FeT'
(PID.TID 0000.0001)     ;
(PID.TID 0000.0001) PTRACERS_long_names = /* Tracer long name */
(PID.TID 0000.0001)               ''
(PID.TID 0000.0001)     ;
(PID.TID 0000.0001) PTRACERS_ioLabel = /* tracer IO Label */
(PID.TID 0000.0001)               '03'
(PID.TID 0000.0001)     ;
(PID.TID 0000.0001) PTRACERS_advScheme = /* Advection Scheme */
(PID.TID 0000.0001)                      33
(PID.TID 0000.0001)     ;
(PID.TID 0000.0001) PTRACERS_SOM_Advection = /* tracer uses SOM advection scheme */
(PID.TID 0000.0001)                   F
(PID.TID 0000.0001)     ;
(PID.TID 0000.0001) PTRACERS_ImplVertAdv = /* implicit vert. advection flag */
(PID.TID 0000.0001)                   F
(PID.TID 0000.0001)     ;
(PID.TID 0000.0001) PTRACERS_MultiDimAdv = /* tracer uses Multi-Dim advection */
(PID.TID 0000.0001)                   T
(PID.TID 0000.0001)     ;
(PID.TID 0000.0001) PTRACERS_AdamsBashGtr = /* apply AB on tracer tendency */
(PID.TID 0000.0001)                   F
(PID.TID 0000.0001)     ;
(PID.TID 0000.0001) PTRACERS_AdamsBash_Tr = /* apply AB on passive tracer */
(PID.TID 0000.0001)                   F
(PID.TID 0000.0001)     ;
(PID.TID 0000.0001) PTRACERS_diffKh = /* Laplacian Diffusivity */
(PID.TID 0000.0001)                 0.000000000000000E+00
(PID.TID 0000.0001)     ;
(PID.TID 0000.0001) PTRACERS_diffK4 = /* Biharmonic Diffusivity */
(PID.TID 0000.0001)                 0.000000000000000E+00
(PID.TID 0000.0001)     ;
(PID.TID 0000.0001) PTRACERS_diffKrNr = /* Vertical Diffusivity */
(PID.TID 0000.0001)    15 @  1.000000000000000E-05              /* K =  1: 15 */
(PID.TID 0000.0001)     ;
(PID.TID 0000.0001) PTRACERS_useGMRedi = /* apply GM-Redi */
(PID.TID 0000.0001)                   T
(PID.TID 0000.0001)     ;
(PID.TID 0000.0001) PTRACERS_useDWNSLP = /* apply DOWN-SLOPE Flow */
(PID.TID 0000.0001)                   F
(PID.TID 0000.0001)     ;
(PID.TID 0000.0001) PTRACERS_useKPP = /* apply KPP scheme */
(PID.TID 0000.0001)                   F
(PID.TID 0000.0001)     ;
(PID.TID 0000.0001) PTRACERS_ref = /* Reference vertical profile */
(PID.TID 0000.0001)    15 @  0.000000000000000E+00              /* K =  1: 15 */
(PID.TID 0000.0001)     ;
(PID.TID 0000.0001) PTRACERS_EvPrRn =/* tracer conc. in Evap. & Rain */
(PID.TID 0000.0001)                 1.234567000000000E+05
(PID.TID 0000.0001)     ;
(PID.TID 0000.0001)  -----------------------------------
(PID.TID 0000.0001)  tracer number :    4
(PID.TID 0000.0001) PTRACERS_names = /* Tracer short name */
(PID.TID 0000.0001)               'SiO2'
(PID.TID 0000.0001)     ;
(PID.TID 0000.0001) PTRACERS_long_names = /* Tracer long name */
(PID.TID 0000.0001)               ''
(PID.TID 0000.0001)     ;
(PID.TID 0000.0001) PTRACERS_ioLabel = /* tracer IO Label */
(PID.TID 0000.0001)               '04'
(PID.TID 0000.0001)     ;
(PID.TID 0000.0001) PTRACERS_advScheme = /* Advection Scheme */
(PID.TID 0000.0001)                      33
(PID.TID 0000.0001)     ;
(PID.TID 0000.0001) PTRACERS_SOM_Advection = /* tracer uses SOM advection scheme */
(PID.TID 0000.0001)                   F
(PID.TID 0000.0001)     ;
(PID.TID 0000.0001) PTRACERS_ImplVertAdv = /* implicit vert. advection flag */
(PID.TID 0000.0001)                   F
(PID.TID 0000.0001)     ;
(PID.TID 0000.0001) PTRACERS_MultiDimAdv = /* tracer uses Multi-Dim advection */
(PID.TID 0000.0001)                   T
(PID.TID 0000.0001)     ;
(PID.TID 0000.0001) PTRACERS_AdamsBashGtr = /* apply AB on tracer tendency */
(PID.TID 0000.0001)                   F
(PID.TID 0000.0001)     ;
(PID.TID 0000.0001) PTRACERS_AdamsBash_Tr = /* apply AB on passive tracer */
(PID.TID 0000.0001)                   F
(PID.TID 0000.0001)     ;
(PID.TID 0000.0001) PTRACERS_diffKh = /* Laplacian Diffusivity */
(PID.TID 0000.0001)                 0.000000000000000E+00
(PID.TID 0000.0001)     ;
(PID.TID 0000.0001) PTRACERS_diffK4 = /* Biharmonic Diffusivity */
(PID.TID 0000.0001)                 0.000000000000000E+00
(PID.TID 0000.0001)     ;
(PID.TID 0000.0001) PTRACERS_diffKrNr = /* Vertical Diffusivity */
(PID.TID 0000.0001)    15 @  1.000000000000000E-05              /* K =  1: 15 */
(PID.TID 0000.0001)     ;
(PID.TID 0000.0001) PTRACERS_useGMRedi = /* apply GM-Redi */
(PID.TID 0000.0001)                   T
(PID.TID 0000.0001)     ;
(PID.TID 0000.0001) PTRACERS_useDWNSLP = /* apply DOWN-SLOPE Flow */
(PID.TID 0000.0001)                   F
(PID.TID 0000.0001)     ;
(PID.TID 0000.0001) PTRACERS_useKPP = /* apply KPP scheme */
(PID.TID 0000.0001)                   F
(PID.TID 0000.0001)     ;
(PID.TID 0000.0001) PTRACERS_ref = /* Reference vertical profile */
(PID.TID 0000.0001)    15 @  0.000000000000000E+00              /* K =  1: 15 */
(PID.TID 0000.0001)     ;
(PID.TID 0000.0001) PTRACERS_EvPrRn =/* tracer conc. in Evap. & Rain */
(PID.TID 0000.0001)                 1.234567000000000E+05
(PID.TID 0000.0001)     ;
(PID.TID 0000.0001)  -----------------------------------
(PID.TID 0000.0001)  tracer number :    5
(PID.TID 0000.0001) PTRACERS_names = /* Tracer short name */
(PID.TID 0000.0001)               'DOP'
(PID.TID 0000.0001)     ;
(PID.TID 0000.0001) PTRACERS_long_names = /* Tracer long name */
(PID.TID 0000.0001)               ''
(PID.TID 0000.0001)     ;
(PID.TID 0000.0001) PTRACERS_ioLabel = /* tracer IO Label */
(PID.TID 0000.0001)               '05'
(PID.TID 0000.0001)     ;
(PID.TID 0000.0001) PTRACERS_advScheme = /* Advection Scheme */
(PID.TID 0000.0001)                      33
(PID.TID 0000.0001)     ;
(PID.TID 0000.0001) PTRACERS_SOM_Advection = /* tracer uses SOM advection scheme */
(PID.TID 0000.0001)                   F
(PID.TID 0000.0001)     ;
(PID.TID 0000.0001) PTRACERS_ImplVertAdv = /* implicit vert. advection flag */
(PID.TID 0000.0001)                   F
(PID.TID 0000.0001)     ;
(PID.TID 0000.0001) PTRACERS_MultiDimAdv = /* tracer uses Multi-Dim advection */
(PID.TID 0000.0001)                   T
(PID.TID 0000.0001)     ;
(PID.TID 0000.0001) PTRACERS_AdamsBashGtr = /* apply AB on tracer tendency */
(PID.TID 0000.0001)                   F
(PID.TID 0000.0001)     ;
(PID.TID 0000.0001) PTRACERS_AdamsBash_Tr = /* apply AB on passive tracer */
(PID.TID 0000.0001)                   F
(PID.TID 0000.0001)     ;
(PID.TID 0000.0001) PTRACERS_diffKh = /* Laplacian Diffusivity */
(PID.TID 0000.0001)                 0.000000000000000E+00
(PID.TID 0000.0001)     ;
(PID.TID 0000.0001) PTRACERS_diffK4 = /* Biharmonic Diffusivity */
(PID.TID 0000.0001)                 0.000000000000000E+00
(PID.TID 0000.0001)     ;
(PID.TID 0000.0001) PTRACERS_diffKrNr = /* Vertical Diffusivity */
(PID.TID 0000.0001)    15 @  1.000000000000000E-05              /* K =  1: 15 */
(PID.TID 0000.0001)     ;
(PID.TID 0000.0001) PTRACERS_useGMRedi = /* apply GM-Redi */
(PID.TID 0000.0001)                   T
(PID.TID 0000.0001)     ;
(PID.TID 0000.0001) PTRACERS_useDWNSLP = /* apply DOWN-SLOPE Flow */
(PID.TID 0000.0001)                   F
(PID.TID 0000.0001)     ;
(PID.TID 0000.0001) PTRACERS_useKPP = /* apply KPP scheme */
(PID.TID 0000.0001)                   F
(PID.TID 0000.0001)     ;
(PID.TID 0000.0001) PTRACERS_ref = /* Reference vertical profile */
(PID.TID 0000.0001)    15 @  0.000000000000000E+00              /* K =  1: 15 */
(PID.TID 0000.0001)     ;
(PID.TID 0000.0001) PTRACERS_EvPrRn =/* tracer conc. in Evap. & Rain */
(PID.TID 0000.0001)                 1.234567000000000E+05
(PID.TID 0000.0001)     ;
(PID.TID 0000.0001)  -----------------------------------
(PID.TID 0000.0001)  tracer number :    6
(PID.TID 0000.0001) PTRACERS_names = /* Tracer short name */
(PID.TID 0000.0001)               'DON'
(PID.TID 0000.0001)     ;
(PID.TID 0000.0001) PTRACERS_long_names = /* Tracer long name */
(PID.TID 0000.0001)               ''
(PID.TID 0000.0001)     ;
(PID.TID 0000.0001) PTRACERS_ioLabel = /* tracer IO Label */
(PID.TID 0000.0001)               '06'
(PID.TID 0000.0001)     ;
(PID.TID 0000.0001) PTRACERS_advScheme = /* Advection Scheme */
(PID.TID 0000.0001)                      33
(PID.TID 0000.0001)     ;
(PID.TID 0000.0001) PTRACERS_SOM_Advection = /* tracer uses SOM advection scheme */
(PID.TID 0000.0001)                   F
(PID.TID 0000.0001)     ;
(PID.TID 0000.0001) PTRACERS_ImplVertAdv = /* implicit vert. advection flag */
(PID.TID 0000.0001)                   F
(PID.TID 0000.0001)     ;
(PID.TID 0000.0001) PTRACERS_MultiDimAdv = /* tracer uses Multi-Dim advection */
(PID.TID 0000.0001)                   T
(PID.TID 0000.0001)     ;
(PID.TID 0000.0001) PTRACERS_AdamsBashGtr = /* apply AB on tracer tendency */
(PID.TID 0000.0001)                   F
(PID.TID 0000.0001)     ;
(PID.TID 0000.0001) PTRACERS_AdamsBash_Tr = /* apply AB on passive tracer */
(PID.TID 0000.0001)                   F
(PID.TID 0000.0001)     ;
(PID.TID 0000.0001) PTRACERS_diffKh = /* Laplacian Diffusivity */
(PID.TID 0000.0001)                 0.000000000000000E+00
(PID.TID 0000.0001)     ;
(PID.TID 0000.0001) PTRACERS_diffK4 = /* Biharmonic Diffusivity */
(PID.TID 0000.0001)                 0.000000000000000E+00
(PID.TID 0000.0001)     ;
(PID.TID 0000.0001) PTRACERS_diffKrNr = /* Vertical Diffusivity */
(PID.TID 0000.0001)    15 @  1.000000000000000E-05              /* K =  1: 15 */
(PID.TID 0000.0001)     ;
(PID.TID 0000.0001) PTRACERS_useGMRedi = /* apply GM-Redi */
(PID.TID 0000.0001)                   T
(PID.TID 0000.0001)     ;
(PID.TID 0000.0001) PTRACERS_useDWNSLP = /* apply DOWN-SLOPE Flow */
(PID.TID 0000.0001)                   F
(PID.TID 0000.0001)     ;
(PID.TID 0000.0001) PTRACERS_useKPP = /* apply KPP scheme */
(PID.TID 0000.0001)                   F
(PID.TID 0000.0001)     ;
(PID.TID 0000.0001) PTRACERS_ref = /* Reference vertical profile */
(PID.TID 0000.0001)    15 @  0.000000000000000E+00              /* K =  1: 15 */
(PID.TID 0000.0001)     ;
(PID.TID 0000.0001) PTRACERS_EvPrRn =/* tracer conc. in Evap. & Rain */
(PID.TID 0000.0001)                 1.234567000000000E+05
(PID.TID 0000.0001)     ;
(PID.TID 0000.0001)  -----------------------------------
(PID.TID 0000.0001)  tracer number :    7
(PID.TID 0000.0001) PTRACERS_names = /* Tracer short name */
(PID.TID 0000.0001)               'DOFe'
(PID.TID 0000.0001)     ;
(PID.TID 0000.0001) PTRACERS_long_names = /* Tracer long name */
(PID.TID 0000.0001)               ''
(PID.TID 0000.0001)     ;
(PID.TID 0000.0001) PTRACERS_ioLabel = /* tracer IO Label */
(PID.TID 0000.0001)               '07'
(PID.TID 0000.0001)     ;
(PID.TID 0000.0001) PTRACERS_advScheme = /* Advection Scheme */
(PID.TID 0000.0001)                      33
(PID.TID 0000.0001)     ;
(PID.TID 0000.0001) PTRACERS_SOM_Advection = /* tracer uses SOM advection scheme */
(PID.TID 0000.0001)                   F
(PID.TID 0000.0001)     ;
(PID.TID 0000.0001) PTRACERS_ImplVertAdv = /* implicit vert. advection flag */
(PID.TID 0000.0001)                   F
(PID.TID 0000.0001)     ;
(PID.TID 0000.0001) PTRACERS_MultiDimAdv = /* tracer uses Multi-Dim advection */
(PID.TID 0000.0001)                   T
(PID.TID 0000.0001)     ;
(PID.TID 0000.0001) PTRACERS_AdamsBashGtr = /* apply AB on tracer tendency */
(PID.TID 0000.0001)                   F
(PID.TID 0000.0001)     ;
(PID.TID 0000.0001) PTRACERS_AdamsBash_Tr = /* apply AB on passive tracer */
(PID.TID 0000.0001)                   F
(PID.TID 0000.0001)     ;
(PID.TID 0000.0001) PTRACERS_diffKh = /* Laplacian Diffusivity */
(PID.TID 0000.0001)                 0.000000000000000E+00
(PID.TID 0000.0001)     ;
(PID.TID 0000.0001) PTRACERS_diffK4 = /* Biharmonic Diffusivity */
(PID.TID 0000.0001)                 0.000000000000000E+00
(PID.TID 0000.0001)     ;
(PID.TID 0000.0001) PTRACERS_diffKrNr = /* Vertical Diffusivity */
(PID.TID 0000.0001)    15 @  1.000000000000000E-05              /* K =  1: 15 */
(PID.TID 0000.0001)     ;
(PID.TID 0000.0001) PTRACERS_useGMRedi = /* apply GM-Redi */
(PID.TID 0000.0001)                   T
(PID.TID 0000.0001)     ;
(PID.TID 0000.0001) PTRACERS_useDWNSLP = /* apply DOWN-SLOPE Flow */
(PID.TID 0000.0001)                   F
(PID.TID 0000.0001)     ;
(PID.TID 0000.0001) PTRACERS_useKPP = /* apply KPP scheme */
(PID.TID 0000.0001)                   F
(PID.TID 0000.0001)     ;
(PID.TID 0000.0001) PTRACERS_ref = /* Reference vertical profile */
(PID.TID 0000.0001)    15 @  0.000000000000000E+00              /* K =  1: 15 */
(PID.TID 0000.0001)     ;
(PID.TID 0000.0001) PTRACERS_EvPrRn =/* tracer conc. in Evap. & Rain */
(PID.TID 0000.0001)                 1.234567000000000E+05
(PID.TID 0000.0001)     ;
(PID.TID 0000.0001)  -----------------------------------
(PID.TID 0000.0001)  tracer number :    8
(PID.TID 0000.0001) PTRACERS_names = /* Tracer short name */
(PID.TID 0000.0001)               'ZOO1P'
(PID.TID 0000.0001)     ;
(PID.TID 0000.0001) PTRACERS_long_names = /* Tracer long name */
(PID.TID 0000.0001)               ''
(PID.TID 0000.0001)     ;
(PID.TID 0000.0001) PTRACERS_ioLabel = /* tracer IO Label */
(PID.TID 0000.0001)               '08'
(PID.TID 0000.0001)     ;
(PID.TID 0000.0001) PTRACERS_advScheme = /* Advection Scheme */
(PID.TID 0000.0001)                      33
(PID.TID 0000.0001)     ;
(PID.TID 0000.0001) PTRACERS_SOM_Advection = /* tracer uses SOM advection scheme */
(PID.TID 0000.0001)                   F
(PID.TID 0000.0001)     ;
(PID.TID 0000.0001) PTRACERS_ImplVertAdv = /* implicit vert. advection flag */
(PID.TID 0000.0001)                   F
(PID.TID 0000.0001)     ;
(PID.TID 0000.0001) PTRACERS_MultiDimAdv = /* tracer uses Multi-Dim advection */
(PID.TID 0000.0001)                   T
(PID.TID 0000.0001)     ;
(PID.TID 0000.0001) PTRACERS_AdamsBashGtr = /* apply AB on tracer tendency */
(PID.TID 0000.0001)                   F
(PID.TID 0000.0001)     ;
(PID.TID 0000.0001) PTRACERS_AdamsBash_Tr = /* apply AB on passive tracer */
(PID.TID 0000.0001)                   F
(PID.TID 0000.0001)     ;
(PID.TID 0000.0001) PTRACERS_diffKh = /* Laplacian Diffusivity */
(PID.TID 0000.0001)                 0.000000000000000E+00
(PID.TID 0000.0001)     ;
(PID.TID 0000.0001) PTRACERS_diffK4 = /* Biharmonic Diffusivity */
(PID.TID 0000.0001)                 0.000000000000000E+00
(PID.TID 0000.0001)     ;
(PID.TID 0000.0001) PTRACERS_diffKrNr = /* Vertical Diffusivity */
(PID.TID 0000.0001)    15 @  1.000000000000000E-05              /* K =  1: 15 */
(PID.TID 0000.0001)     ;
(PID.TID 0000.0001) PTRACERS_useGMRedi = /* apply GM-Redi */
(PID.TID 0000.0001)                   T
(PID.TID 0000.0001)     ;
(PID.TID 0000.0001) PTRACERS_useDWNSLP = /* apply DOWN-SLOPE Flow */
(PID.TID 0000.0001)                   F
(PID.TID 0000.0001)     ;
(PID.TID 0000.0001) PTRACERS_useKPP = /* apply KPP scheme */
(PID.TID 0000.0001)                   F
(PID.TID 0000.0001)     ;
(PID.TID 0000.0001) PTRACERS_ref = /* Reference vertical profile */
(PID.TID 0000.0001)    15 @  0.000000000000000E+00              /* K =  1: 15 */
(PID.TID 0000.0001)     ;
(PID.TID 0000.0001) PTRACERS_EvPrRn =/* tracer conc. in Evap. & Rain */
(PID.TID 0000.0001)                 1.234567000000000E+05
(PID.TID 0000.0001)     ;
(PID.TID 0000.0001)  -----------------------------------
(PID.TID 0000.0001)  tracer number :    9
(PID.TID 0000.0001) PTRACERS_names = /* Tracer short name */
(PID.TID 0000.0001)               'ZOO1N'
(PID.TID 0000.0001)     ;
(PID.TID 0000.0001) PTRACERS_long_names = /* Tracer long name */
(PID.TID 0000.0001)               ''
(PID.TID 0000.0001)     ;
(PID.TID 0000.0001) PTRACERS_ioLabel = /* tracer IO Label */
(PID.TID 0000.0001)               '09'
(PID.TID 0000.0001)     ;
(PID.TID 0000.0001) PTRACERS_advScheme = /* Advection Scheme */
(PID.TID 0000.0001)                      33
(PID.TID 0000.0001)     ;
(PID.TID 0000.0001) PTRACERS_SOM_Advection = /* tracer uses SOM advection scheme */
(PID.TID 0000.0001)                   F
(PID.TID 0000.0001)     ;
(PID.TID 0000.0001) PTRACERS_ImplVertAdv = /* implicit vert. advection flag */
(PID.TID 0000.0001)                   F
(PID.TID 0000.0001)     ;
(PID.TID 0000.0001) PTRACERS_MultiDimAdv = /* tracer uses Multi-Dim advection */
(PID.TID 0000.0001)                   T
(PID.TID 0000.0001)     ;
(PID.TID 0000.0001) PTRACERS_AdamsBashGtr = /* apply AB on tracer tendency */
(PID.TID 0000.0001)                   F
(PID.TID 0000.0001)     ;
(PID.TID 0000.0001) PTRACERS_AdamsBash_Tr = /* apply AB on passive tracer */
(PID.TID 0000.0001)                   F
(PID.TID 0000.0001)     ;
(PID.TID 0000.0001) PTRACERS_diffKh = /* Laplacian Diffusivity */
(PID.TID 0000.0001)                 0.000000000000000E+00
(PID.TID 0000.0001)     ;
(PID.TID 0000.0001) PTRACERS_diffK4 = /* Biharmonic Diffusivity */
(PID.TID 0000.0001)                 0.000000000000000E+00
(PID.TID 0000.0001)     ;
(PID.TID 0000.0001) PTRACERS_diffKrNr = /* Vertical Diffusivity */
(PID.TID 0000.0001)    15 @  1.000000000000000E-05              /* K =  1: 15 */
(PID.TID 0000.0001)     ;
(PID.TID 0000.0001) PTRACERS_useGMRedi = /* apply GM-Redi */
(PID.TID 0000.0001)                   T
(PID.TID 0000.0001)     ;
(PID.TID 0000.0001) PTRACERS_useDWNSLP = /* apply DOWN-SLOPE Flow */
(PID.TID 0000.0001)                   F
(PID.TID 0000.0001)     ;
(PID.TID 0000.0001) PTRACERS_useKPP = /* apply KPP scheme */
(PID.TID 0000.0001)                   F
(PID.TID 0000.0001)     ;
(PID.TID 0000.0001) PTRACERS_ref = /* Reference vertical profile */
(PID.TID 0000.0001)    15 @  0.000000000000000E+00              /* K =  1: 15 */
(PID.TID 0000.0001)     ;
(PID.TID 0000.0001) PTRACERS_EvPrRn =/* tracer conc. in Evap. & Rain */
(PID.TID 0000.0001)                 1.234567000000000E+05
(PID.TID 0000.0001)     ;
(PID.TID 0000.0001)  -----------------------------------
(PID.TID 0000.0001)  tracer number :   10
(PID.TID 0000.0001) PTRACERS_names = /* Tracer short name */
(PID.TID 0000.0001)               'ZOO1Fe'
(PID.TID 0000.0001)     ;
(PID.TID 0000.0001) PTRACERS_long_names = /* Tracer long name */
(PID.TID 0000.0001)               ''
(PID.TID 0000.0001)     ;
(PID.TID 0000.0001) PTRACERS_ioLabel = /* tracer IO Label */
(PID.TID 0000.0001)               '10'
(PID.TID 0000.0001)     ;
(PID.TID 0000.0001) PTRACERS_advScheme = /* Advection Scheme */
(PID.TID 0000.0001)                      33
(PID.TID 0000.0001)     ;
(PID.TID 0000.0001) PTRACERS_SOM_Advection = /* tracer uses SOM advection scheme */
(PID.TID 0000.0001)                   F
(PID.TID 0000.0001)     ;
(PID.TID 0000.0001) PTRACERS_ImplVertAdv = /* implicit vert. advection flag */
(PID.TID 0000.0001)                   F
(PID.TID 0000.0001)     ;
(PID.TID 0000.0001) PTRACERS_MultiDimAdv = /* tracer uses Multi-Dim advection */
(PID.TID 0000.0001)                   T
(PID.TID 0000.0001)     ;
(PID.TID 0000.0001) PTRACERS_AdamsBashGtr = /* apply AB on tracer tendency */
(PID.TID 0000.0001)                   F
(PID.TID 0000.0001)     ;
(PID.TID 0000.0001) PTRACERS_AdamsBash_Tr = /* apply AB on passive tracer */
(PID.TID 0000.0001)                   F
(PID.TID 0000.0001)     ;
(PID.TID 0000.0001) PTRACERS_diffKh = /* Laplacian Diffusivity */
(PID.TID 0000.0001)                 0.000000000000000E+00
(PID.TID 0000.0001)     ;
(PID.TID 0000.0001) PTRACERS_diffK4 = /* Biharmonic Diffusivity */
(PID.TID 0000.0001)                 0.000000000000000E+00
(PID.TID 0000.0001)     ;
(PID.TID 0000.0001) PTRACERS_diffKrNr = /* Vertical Diffusivity */
(PID.TID 0000.0001)    15 @  1.000000000000000E-05              /* K =  1: 15 */
(PID.TID 0000.0001)     ;
(PID.TID 0000.0001) PTRACERS_useGMRedi = /* apply GM-Redi */
(PID.TID 0000.0001)                   T
(PID.TID 0000.0001)     ;
(PID.TID 0000.0001) PTRACERS_useDWNSLP = /* apply DOWN-SLOPE Flow */
(PID.TID 0000.0001)                   F
(PID.TID 0000.0001)     ;
(PID.TID 0000.0001) PTRACERS_useKPP = /* apply KPP scheme */
(PID.TID 0000.0001)                   F
(PID.TID 0000.0001)     ;
(PID.TID 0000.0001) PTRACERS_ref = /* Reference vertical profile */
(PID.TID 0000.0001)    15 @  0.000000000000000E+00              /* K =  1: 15 */
(PID.TID 0000.0001)     ;
(PID.TID 0000.0001) PTRACERS_EvPrRn =/* tracer conc. in Evap. & Rain */
(PID.TID 0000.0001)                 1.234567000000000E+05
(PID.TID 0000.0001)     ;
(PID.TID 0000.0001)  -----------------------------------
(PID.TID 0000.0001)  tracer number :   11
(PID.TID 0000.0001) PTRACERS_names = /* Tracer short name */
(PID.TID 0000.0001)               'ZOO1Si'
(PID.TID 0000.0001)     ;
(PID.TID 0000.0001) PTRACERS_long_names = /* Tracer long name */
(PID.TID 0000.0001)               ''
(PID.TID 0000.0001)     ;
(PID.TID 0000.0001) PTRACERS_ioLabel = /* tracer IO Label */
(PID.TID 0000.0001)               '11'
(PID.TID 0000.0001)     ;
(PID.TID 0000.0001) PTRACERS_advScheme = /* Advection Scheme */
(PID.TID 0000.0001)                      33
(PID.TID 0000.0001)     ;
(PID.TID 0000.0001) PTRACERS_SOM_Advection = /* tracer uses SOM advection scheme */
(PID.TID 0000.0001)                   F
(PID.TID 0000.0001)     ;
(PID.TID 0000.0001) PTRACERS_ImplVertAdv = /* implicit vert. advection flag */
(PID.TID 0000.0001)                   F
(PID.TID 0000.0001)     ;
(PID.TID 0000.0001) PTRACERS_MultiDimAdv = /* tracer uses Multi-Dim advection */
(PID.TID 0000.0001)                   T
(PID.TID 0000.0001)     ;
(PID.TID 0000.0001) PTRACERS_AdamsBashGtr = /* apply AB on tracer tendency */
(PID.TID 0000.0001)                   F
(PID.TID 0000.0001)     ;
(PID.TID 0000.0001) PTRACERS_AdamsBash_Tr = /* apply AB on passive tracer */
(PID.TID 0000.0001)                   F
(PID.TID 0000.0001)     ;
(PID.TID 0000.0001) PTRACERS_diffKh = /* Laplacian Diffusivity */
(PID.TID 0000.0001)                 0.000000000000000E+00
(PID.TID 0000.0001)     ;
(PID.TID 0000.0001) PTRACERS_diffK4 = /* Biharmonic Diffusivity */
(PID.TID 0000.0001)                 0.000000000000000E+00
(PID.TID 0000.0001)     ;
(PID.TID 0000.0001) PTRACERS_diffKrNr = /* Vertical Diffusivity */
(PID.TID 0000.0001)    15 @  1.000000000000000E-05              /* K =  1: 15 */
(PID.TID 0000.0001)     ;
(PID.TID 0000.0001) PTRACERS_useGMRedi = /* apply GM-Redi */
(PID.TID 0000.0001)                   T
(PID.TID 0000.0001)     ;
(PID.TID 0000.0001) PTRACERS_useDWNSLP = /* apply DOWN-SLOPE Flow */
(PID.TID 0000.0001)                   F
(PID.TID 0000.0001)     ;
(PID.TID 0000.0001) PTRACERS_useKPP = /* apply KPP scheme */
(PID.TID 0000.0001)                   F
(PID.TID 0000.0001)     ;
(PID.TID 0000.0001) PTRACERS_ref = /* Reference vertical profile */
(PID.TID 0000.0001)    15 @  0.000000000000000E+00              /* K =  1: 15 */
(PID.TID 0000.0001)     ;
(PID.TID 0000.0001) PTRACERS_EvPrRn =/* tracer conc. in Evap. & Rain */
(PID.TID 0000.0001)                 1.234567000000000E+05
(PID.TID 0000.0001)     ;
(PID.TID 0000.0001)  -----------------------------------
(PID.TID 0000.0001)  tracer number :   12
(PID.TID 0000.0001) PTRACERS_names = /* Tracer short name */
(PID.TID 0000.0001)               'ZOO2P'
(PID.TID 0000.0001)     ;
(PID.TID 0000.0001) PTRACERS_long_names = /* Tracer long name */
(PID.TID 0000.0001)               ''
(PID.TID 0000.0001)     ;
(PID.TID 0000.0001) PTRACERS_ioLabel = /* tracer IO Label */
(PID.TID 0000.0001)               '12'
(PID.TID 0000.0001)     ;
(PID.TID 0000.0001) PTRACERS_advScheme = /* Advection Scheme */
(PID.TID 0000.0001)                      33
(PID.TID 0000.0001)     ;
(PID.TID 0000.0001) PTRACERS_SOM_Advection = /* tracer uses SOM advection scheme */
(PID.TID 0000.0001)                   F
(PID.TID 0000.0001)     ;
(PID.TID 0000.0001) PTRACERS_ImplVertAdv = /* implicit vert. advection flag */
(PID.TID 0000.0001)                   F
(PID.TID 0000.0001)     ;
(PID.TID 0000.0001) PTRACERS_MultiDimAdv = /* tracer uses Multi-Dim advection */
(PID.TID 0000.0001)                   T
(PID.TID 0000.0001)     ;
(PID.TID 0000.0001) PTRACERS_AdamsBashGtr = /* apply AB on tracer tendency */
(PID.TID 0000.0001)                   F
(PID.TID 0000.0001)     ;
(PID.TID 0000.0001) PTRACERS_AdamsBash_Tr = /* apply AB on passive tracer */
(PID.TID 0000.0001)                   F
(PID.TID 0000.0001)     ;
(PID.TID 0000.0001) PTRACERS_diffKh = /* Laplacian Diffusivity */
(PID.TID 0000.0001)                 0.000000000000000E+00
(PID.TID 0000.0001)     ;
(PID.TID 0000.0001) PTRACERS_diffK4 = /* Biharmonic Diffusivity */
(PID.TID 0000.0001)                 0.000000000000000E+00
(PID.TID 0000.0001)     ;
(PID.TID 0000.0001) PTRACERS_diffKrNr = /* Vertical Diffusivity */
(PID.TID 0000.0001)    15 @  1.000000000000000E-05              /* K =  1: 15 */
(PID.TID 0000.0001)     ;
(PID.TID 0000.0001) PTRACERS_useGMRedi = /* apply GM-Redi */
(PID.TID 0000.0001)                   T
(PID.TID 0000.0001)     ;
(PID.TID 0000.0001) PTRACERS_useDWNSLP = /* apply DOWN-SLOPE Flow */
(PID.TID 0000.0001)                   F
(PID.TID 0000.0001)     ;
(PID.TID 0000.0001) PTRACERS_useKPP = /* apply KPP scheme */
(PID.TID 0000.0001)                   F
(PID.TID 0000.0001)     ;
(PID.TID 0000.0001) PTRACERS_ref = /* Reference vertical profile */
(PID.TID 0000.0001)    15 @  0.000000000000000E+00              /* K =  1: 15 */
(PID.TID 0000.0001)     ;
(PID.TID 0000.0001) PTRACERS_EvPrRn =/* tracer conc. in Evap. & Rain */
(PID.TID 0000.0001)                 1.234567000000000E+05
(PID.TID 0000.0001)     ;
(PID.TID 0000.0001)  -----------------------------------
(PID.TID 0000.0001)  tracer number :   13
(PID.TID 0000.0001) PTRACERS_names = /* Tracer short name */
(PID.TID 0000.0001)               'ZOO2N'
(PID.TID 0000.0001)     ;
(PID.TID 0000.0001) PTRACERS_long_names = /* Tracer long name */
(PID.TID 0000.0001)               ''
(PID.TID 0000.0001)     ;
(PID.TID 0000.0001) PTRACERS_ioLabel = /* tracer IO Label */
(PID.TID 0000.0001)               '13'
(PID.TID 0000.0001)     ;
(PID.TID 0000.0001) PTRACERS_advScheme = /* Advection Scheme */
(PID.TID 0000.0001)                      33
(PID.TID 0000.0001)     ;
(PID.TID 0000.0001) PTRACERS_SOM_Advection = /* tracer uses SOM advection scheme */
(PID.TID 0000.0001)                   F
(PID.TID 0000.0001)     ;
(PID.TID 0000.0001) PTRACERS_ImplVertAdv = /* implicit vert. advection flag */
(PID.TID 0000.0001)                   F
(PID.TID 0000.0001)     ;
(PID.TID 0000.0001) PTRACERS_MultiDimAdv = /* tracer uses Multi-Dim advection */
(PID.TID 0000.0001)                   T
(PID.TID 0000.0001)     ;
(PID.TID 0000.0001) PTRACERS_AdamsBashGtr = /* apply AB on tracer tendency */
(PID.TID 0000.0001)                   F
(PID.TID 0000.0001)     ;
(PID.TID 0000.0001) PTRACERS_AdamsBash_Tr = /* apply AB on passive tracer */
(PID.TID 0000.0001)                   F
(PID.TID 0000.0001)     ;
(PID.TID 0000.0001) PTRACERS_diffKh = /* Laplacian Diffusivity */
(PID.TID 0000.0001)                 0.000000000000000E+00
(PID.TID 0000.0001)     ;
(PID.TID 0000.0001) PTRACERS_diffK4 = /* Biharmonic Diffusivity */
(PID.TID 0000.0001)                 0.000000000000000E+00
(PID.TID 0000.0001)     ;
(PID.TID 0000.0001) PTRACERS_diffKrNr = /* Vertical Diffusivity */
(PID.TID 0000.0001)    15 @  1.000000000000000E-05              /* K =  1: 15 */
(PID.TID 0000.0001)     ;
(PID.TID 0000.0001) PTRACERS_useGMRedi = /* apply GM-Redi */
(PID.TID 0000.0001)                   T
(PID.TID 0000.0001)     ;
(PID.TID 0000.0001) PTRACERS_useDWNSLP = /* apply DOWN-SLOPE Flow */
(PID.TID 0000.0001)                   F
(PID.TID 0000.0001)     ;
(PID.TID 0000.0001) PTRACERS_useKPP = /* apply KPP scheme */
(PID.TID 0000.0001)                   F
(PID.TID 0000.0001)     ;
(PID.TID 0000.0001) PTRACERS_ref = /* Reference vertical profile */
(PID.TID 0000.0001)    15 @  0.000000000000000E+00              /* K =  1: 15 */
(PID.TID 0000.0001)     ;
(PID.TID 0000.0001) PTRACERS_EvPrRn =/* tracer conc. in Evap. & Rain */
(PID.TID 0000.0001)                 1.234567000000000E+05
(PID.TID 0000.0001)     ;
(PID.TID 0000.0001)  -----------------------------------
(PID.TID 0000.0001)  tracer number :   14
(PID.TID 0000.0001) PTRACERS_names = /* Tracer short name */
(PID.TID 0000.0001)               'ZOO2Fe'
(PID.TID 0000.0001)     ;
(PID.TID 0000.0001) PTRACERS_long_names = /* Tracer long name */
(PID.TID 0000.0001)               ''
(PID.TID 0000.0001)     ;
(PID.TID 0000.0001) PTRACERS_ioLabel = /* tracer IO Label */
(PID.TID 0000.0001)               '14'
(PID.TID 0000.0001)     ;
(PID.TID 0000.0001) PTRACERS_advScheme = /* Advection Scheme */
(PID.TID 0000.0001)                      33
(PID.TID 0000.0001)     ;
(PID.TID 0000.0001) PTRACERS_SOM_Advection = /* tracer uses SOM advection scheme */
(PID.TID 0000.0001)                   F
(PID.TID 0000.0001)     ;
(PID.TID 0000.0001) PTRACERS_ImplVertAdv = /* implicit vert. advection flag */
(PID.TID 0000.0001)                   F
(PID.TID 0000.0001)     ;
(PID.TID 0000.0001) PTRACERS_MultiDimAdv = /* tracer uses Multi-Dim advection */
(PID.TID 0000.0001)                   T
(PID.TID 0000.0001)     ;
(PID.TID 0000.0001) PTRACERS_AdamsBashGtr = /* apply AB on tracer tendency */
(PID.TID 0000.0001)                   F
(PID.TID 0000.0001)     ;
(PID.TID 0000.0001) PTRACERS_AdamsBash_Tr = /* apply AB on passive tracer */
(PID.TID 0000.0001)                   F
(PID.TID 0000.0001)     ;
(PID.TID 0000.0001) PTRACERS_diffKh = /* Laplacian Diffusivity */
(PID.TID 0000.0001)                 0.000000000000000E+00
(PID.TID 0000.0001)     ;
(PID.TID 0000.0001) PTRACERS_diffK4 = /* Biharmonic Diffusivity */
(PID.TID 0000.0001)                 0.000000000000000E+00
(PID.TID 0000.0001)     ;
(PID.TID 0000.0001) PTRACERS_diffKrNr = /* Vertical Diffusivity */
(PID.TID 0000.0001)    15 @  1.000000000000000E-05              /* K =  1: 15 */
(PID.TID 0000.0001)     ;
(PID.TID 0000.0001) PTRACERS_useGMRedi = /* apply GM-Redi */
(PID.TID 0000.0001)                   T
(PID.TID 0000.0001)     ;
(PID.TID 0000.0001) PTRACERS_useDWNSLP = /* apply DOWN-SLOPE Flow */
(PID.TID 0000.0001)                   F
(PID.TID 0000.0001)     ;
(PID.TID 0000.0001) PTRACERS_useKPP = /* apply KPP scheme */
(PID.TID 0000.0001)                   F
(PID.TID 0000.0001)     ;
(PID.TID 0000.0001) PTRACERS_ref = /* Reference vertical profile */
(PID.TID 0000.0001)    15 @  0.000000000000000E+00              /* K =  1: 15 */
(PID.TID 0000.0001)     ;
(PID.TID 0000.0001) PTRACERS_EvPrRn =/* tracer conc. in Evap. & Rain */
(PID.TID 0000.0001)                 1.234567000000000E+05
(PID.TID 0000.0001)     ;
(PID.TID 0000.0001)  -----------------------------------
(PID.TID 0000.0001)  tracer number :   15
(PID.TID 0000.0001) PTRACERS_names = /* Tracer short name */
(PID.TID 0000.0001)               'ZOO2Si'
(PID.TID 0000.0001)     ;
(PID.TID 0000.0001) PTRACERS_long_names = /* Tracer long name */
(PID.TID 0000.0001)               ''
(PID.TID 0000.0001)     ;
(PID.TID 0000.0001) PTRACERS_ioLabel = /* tracer IO Label */
(PID.TID 0000.0001)               '15'
(PID.TID 0000.0001)     ;
(PID.TID 0000.0001) PTRACERS_advScheme = /* Advection Scheme */
(PID.TID 0000.0001)                      33
(PID.TID 0000.0001)     ;
(PID.TID 0000.0001) PTRACERS_SOM_Advection = /* tracer uses SOM advection scheme */
(PID.TID 0000.0001)                   F
(PID.TID 0000.0001)     ;
(PID.TID 0000.0001) PTRACERS_ImplVertAdv = /* implicit vert. advection flag */
(PID.TID 0000.0001)                   F
(PID.TID 0000.0001)     ;
(PID.TID 0000.0001) PTRACERS_MultiDimAdv = /* tracer uses Multi-Dim advection */
(PID.TID 0000.0001)                   T
(PID.TID 0000.0001)     ;
(PID.TID 0000.0001) PTRACERS_AdamsBashGtr = /* apply AB on tracer tendency */
(PID.TID 0000.0001)                   F
(PID.TID 0000.0001)     ;
(PID.TID 0000.0001) PTRACERS_AdamsBash_Tr = /* apply AB on passive tracer */
(PID.TID 0000.0001)                   F
(PID.TID 0000.0001)     ;
(PID.TID 0000.0001) PTRACERS_diffKh = /* Laplacian Diffusivity */
(PID.TID 0000.0001)                 0.000000000000000E+00
(PID.TID 0000.0001)     ;
(PID.TID 0000.0001) PTRACERS_diffK4 = /* Biharmonic Diffusivity */
(PID.TID 0000.0001)                 0.000000000000000E+00
(PID.TID 0000.0001)     ;
(PID.TID 0000.0001) PTRACERS_diffKrNr = /* Vertical Diffusivity */
(PID.TID 0000.0001)    15 @  1.000000000000000E-05              /* K =  1: 15 */
(PID.TID 0000.0001)     ;
(PID.TID 0000.0001) PTRACERS_useGMRedi = /* apply GM-Redi */
(PID.TID 0000.0001)                   T
(PID.TID 0000.0001)     ;
(PID.TID 0000.0001) PTRACERS_useDWNSLP = /* apply DOWN-SLOPE Flow */
(PID.TID 0000.0001)                   F
(PID.TID 0000.0001)     ;
(PID.TID 0000.0001) PTRACERS_useKPP = /* apply KPP scheme */
(PID.TID 0000.0001)                   F
(PID.TID 0000.0001)     ;
(PID.TID 0000.0001) PTRACERS_ref = /* Reference vertical profile */
(PID.TID 0000.0001)    15 @  0.000000000000000E+00              /* K =  1: 15 */
(PID.TID 0000.0001)     ;
(PID.TID 0000.0001) PTRACERS_EvPrRn =/* tracer conc. in Evap. & Rain */
(PID.TID 0000.0001)                 1.234567000000000E+05
(PID.TID 0000.0001)     ;
(PID.TID 0000.0001)  -----------------------------------
(PID.TID 0000.0001)  tracer number :   16
(PID.TID 0000.0001) PTRACERS_names = /* Tracer short name */
(PID.TID 0000.0001)               'POP'
(PID.TID 0000.0001)     ;
(PID.TID 0000.0001) PTRACERS_long_names = /* Tracer long name */
(PID.TID 0000.0001)               ''
(PID.TID 0000.0001)     ;
(PID.TID 0000.0001) PTRACERS_ioLabel = /* tracer IO Label */
(PID.TID 0000.0001)               '16'
(PID.TID 0000.0001)     ;
(PID.TID 0000.0001) PTRACERS_advScheme = /* Advection Scheme */
(PID.TID 0000.0001)                      33
(PID.TID 0000.0001)     ;
(PID.TID 0000.0001) PTRACERS_SOM_Advection = /* tracer uses SOM advection scheme */
(PID.TID 0000.0001)                   F
(PID.TID 0000.0001)     ;
(PID.TID 0000.0001) PTRACERS_ImplVertAdv = /* implicit vert. advection flag */
(PID.TID 0000.0001)                   F
(PID.TID 0000.0001)     ;
(PID.TID 0000.0001) PTRACERS_MultiDimAdv = /* tracer uses Multi-Dim advection */
(PID.TID 0000.0001)                   T
(PID.TID 0000.0001)     ;
(PID.TID 0000.0001) PTRACERS_AdamsBashGtr = /* apply AB on tracer tendency */
(PID.TID 0000.0001)                   F
(PID.TID 0000.0001)     ;
(PID.TID 0000.0001) PTRACERS_AdamsBash_Tr = /* apply AB on passive tracer */
(PID.TID 0000.0001)                   F
(PID.TID 0000.0001)     ;
(PID.TID 0000.0001) PTRACERS_diffKh = /* Laplacian Diffusivity */
(PID.TID 0000.0001)                 0.000000000000000E+00
(PID.TID 0000.0001)     ;
(PID.TID 0000.0001) PTRACERS_diffK4 = /* Biharmonic Diffusivity */
(PID.TID 0000.0001)                 0.000000000000000E+00
(PID.TID 0000.0001)     ;
(PID.TID 0000.0001) PTRACERS_diffKrNr = /* Vertical Diffusivity */
(PID.TID 0000.0001)    15 @  1.000000000000000E-05              /* K =  1: 15 */
(PID.TID 0000.0001)     ;
(PID.TID 0000.0001) PTRACERS_useGMRedi = /* apply GM-Redi */
(PID.TID 0000.0001)                   T
(PID.TID 0000.0001)     ;
(PID.TID 0000.0001) PTRACERS_useDWNSLP = /* apply DOWN-SLOPE Flow */
(PID.TID 0000.0001)                   F
(PID.TID 0000.0001)     ;
(PID.TID 0000.0001) PTRACERS_useKPP = /* apply KPP scheme */
(PID.TID 0000.0001)                   F
(PID.TID 0000.0001)     ;
(PID.TID 0000.0001) PTRACERS_ref = /* Reference vertical profile */
(PID.TID 0000.0001)    15 @  0.000000000000000E+00              /* K =  1: 15 */
(PID.TID 0000.0001)     ;
(PID.TID 0000.0001) PTRACERS_EvPrRn =/* tracer conc. in Evap. & Rain */
(PID.TID 0000.0001)                 1.234567000000000E+05
(PID.TID 0000.0001)     ;
(PID.TID 0000.0001)  -----------------------------------
(PID.TID 0000.0001)  tracer number :   17
(PID.TID 0000.0001) PTRACERS_names = /* Tracer short name */
(PID.TID 0000.0001)               'PON'
(PID.TID 0000.0001)     ;
(PID.TID 0000.0001) PTRACERS_long_names = /* Tracer long name */
(PID.TID 0000.0001)               ''
(PID.TID 0000.0001)     ;
(PID.TID 0000.0001) PTRACERS_ioLabel = /* tracer IO Label */
(PID.TID 0000.0001)               '17'
(PID.TID 0000.0001)     ;
(PID.TID 0000.0001) PTRACERS_advScheme = /* Advection Scheme */
(PID.TID 0000.0001)                      33
(PID.TID 0000.0001)     ;
(PID.TID 0000.0001) PTRACERS_SOM_Advection = /* tracer uses SOM advection scheme */
(PID.TID 0000.0001)                   F
(PID.TID 0000.0001)     ;
(PID.TID 0000.0001) PTRACERS_ImplVertAdv = /* implicit vert. advection flag */
(PID.TID 0000.0001)                   F
(PID.TID 0000.0001)     ;
(PID.TID 0000.0001) PTRACERS_MultiDimAdv = /* tracer uses Multi-Dim advection */
(PID.TID 0000.0001)                   T
(PID.TID 0000.0001)     ;
(PID.TID 0000.0001) PTRACERS_AdamsBashGtr = /* apply AB on tracer tendency */
(PID.TID 0000.0001)                   F
(PID.TID 0000.0001)     ;
(PID.TID 0000.0001) PTRACERS_AdamsBash_Tr = /* apply AB on passive tracer */
(PID.TID 0000.0001)                   F
(PID.TID 0000.0001)     ;
(PID.TID 0000.0001) PTRACERS_diffKh = /* Laplacian Diffusivity */
(PID.TID 0000.0001)                 0.000000000000000E+00
(PID.TID 0000.0001)     ;
(PID.TID 0000.0001) PTRACERS_diffK4 = /* Biharmonic Diffusivity */
(PID.TID 0000.0001)                 0.000000000000000E+00
(PID.TID 0000.0001)     ;
(PID.TID 0000.0001) PTRACERS_diffKrNr = /* Vertical Diffusivity */
(PID.TID 0000.0001)    15 @  1.000000000000000E-05              /* K =  1: 15 */
(PID.TID 0000.0001)     ;
(PID.TID 0000.0001) PTRACERS_useGMRedi = /* apply GM-Redi */
(PID.TID 0000.0001)                   T
(PID.TID 0000.0001)     ;
(PID.TID 0000.0001) PTRACERS_useDWNSLP = /* apply DOWN-SLOPE Flow */
(PID.TID 0000.0001)                   F
(PID.TID 0000.0001)     ;
(PID.TID 0000.0001) PTRACERS_useKPP = /* apply KPP scheme */
(PID.TID 0000.0001)                   F
(PID.TID 0000.0001)     ;
(PID.TID 0000.0001) PTRACERS_ref = /* Reference vertical profile */
(PID.TID 0000.0001)    15 @  0.000000000000000E+00              /* K =  1: 15 */
(PID.TID 0000.0001)     ;
(PID.TID 0000.0001) PTRACERS_EvPrRn =/* tracer conc. in Evap. & Rain */
(PID.TID 0000.0001)                 1.234567000000000E+05
(PID.TID 0000.0001)     ;
(PID.TID 0000.0001)  -----------------------------------
(PID.TID 0000.0001)  tracer number :   18
(PID.TID 0000.0001) PTRACERS_names = /* Tracer short name */
(PID.TID 0000.0001)               'POFe'
(PID.TID 0000.0001)     ;
(PID.TID 0000.0001) PTRACERS_long_names = /* Tracer long name */
(PID.TID 0000.0001)               ''
(PID.TID 0000.0001)     ;
(PID.TID 0000.0001) PTRACERS_ioLabel = /* tracer IO Label */
(PID.TID 0000.0001)               '18'
(PID.TID 0000.0001)     ;
(PID.TID 0000.0001) PTRACERS_advScheme = /* Advection Scheme */
(PID.TID 0000.0001)                      33
(PID.TID 0000.0001)     ;
(PID.TID 0000.0001) PTRACERS_SOM_Advection = /* tracer uses SOM advection scheme */
(PID.TID 0000.0001)                   F
(PID.TID 0000.0001)     ;
(PID.TID 0000.0001) PTRACERS_ImplVertAdv = /* implicit vert. advection flag */
(PID.TID 0000.0001)                   F
(PID.TID 0000.0001)     ;
(PID.TID 0000.0001) PTRACERS_MultiDimAdv = /* tracer uses Multi-Dim advection */
(PID.TID 0000.0001)                   T
(PID.TID 0000.0001)     ;
(PID.TID 0000.0001) PTRACERS_AdamsBashGtr = /* apply AB on tracer tendency */
(PID.TID 0000.0001)                   F
(PID.TID 0000.0001)     ;
(PID.TID 0000.0001) PTRACERS_AdamsBash_Tr = /* apply AB on passive tracer */
(PID.TID 0000.0001)                   F
(PID.TID 0000.0001)     ;
(PID.TID 0000.0001) PTRACERS_diffKh = /* Laplacian Diffusivity */
(PID.TID 0000.0001)                 0.000000000000000E+00
(PID.TID 0000.0001)     ;
(PID.TID 0000.0001) PTRACERS_diffK4 = /* Biharmonic Diffusivity */
(PID.TID 0000.0001)                 0.000000000000000E+00
(PID.TID 0000.0001)     ;
(PID.TID 0000.0001) PTRACERS_diffKrNr = /* Vertical Diffusivity */
(PID.TID 0000.0001)    15 @  1.000000000000000E-05              /* K =  1: 15 */
(PID.TID 0000.0001)     ;
(PID.TID 0000.0001) PTRACERS_useGMRedi = /* apply GM-Redi */
(PID.TID 0000.0001)                   T
(PID.TID 0000.0001)     ;
(PID.TID 0000.0001) PTRACERS_useDWNSLP = /* apply DOWN-SLOPE Flow */
(PID.TID 0000.0001)                   F
(PID.TID 0000.0001)     ;
(PID.TID 0000.0001) PTRACERS_useKPP = /* apply KPP scheme */
(PID.TID 0000.0001)                   F
(PID.TID 0000.0001)     ;
(PID.TID 0000.0001) PTRACERS_ref = /* Reference vertical profile */
(PID.TID 0000.0001)    15 @  0.000000000000000E+00              /* K =  1: 15 */
(PID.TID 0000.0001)     ;
(PID.TID 0000.0001) PTRACERS_EvPrRn =/* tracer conc. in Evap. & Rain */
(PID.TID 0000.0001)                 1.234567000000000E+05
(PID.TID 0000.0001)     ;
(PID.TID 0000.0001)  -----------------------------------
(PID.TID 0000.0001)  tracer number :   19
(PID.TID 0000.0001) PTRACERS_names = /* Tracer short name */
(PID.TID 0000.0001)               'POSi'
(PID.TID 0000.0001)     ;
(PID.TID 0000.0001) PTRACERS_long_names = /* Tracer long name */
(PID.TID 0000.0001)               ''
(PID.TID 0000.0001)     ;
(PID.TID 0000.0001) PTRACERS_ioLabel = /* tracer IO Label */
(PID.TID 0000.0001)               '19'
(PID.TID 0000.0001)     ;
(PID.TID 0000.0001) PTRACERS_advScheme = /* Advection Scheme */
(PID.TID 0000.0001)                      33
(PID.TID 0000.0001)     ;
(PID.TID 0000.0001) PTRACERS_SOM_Advection = /* tracer uses SOM advection scheme */
(PID.TID 0000.0001)                   F
(PID.TID 0000.0001)     ;
(PID.TID 0000.0001) PTRACERS_ImplVertAdv = /* implicit vert. advection flag */
(PID.TID 0000.0001)                   F
(PID.TID 0000.0001)     ;
(PID.TID 0000.0001) PTRACERS_MultiDimAdv = /* tracer uses Multi-Dim advection */
(PID.TID 0000.0001)                   T
(PID.TID 0000.0001)     ;
(PID.TID 0000.0001) PTRACERS_AdamsBashGtr = /* apply AB on tracer tendency */
(PID.TID 0000.0001)                   F
(PID.TID 0000.0001)     ;
(PID.TID 0000.0001) PTRACERS_AdamsBash_Tr = /* apply AB on passive tracer */
(PID.TID 0000.0001)                   F
(PID.TID 0000.0001)     ;
(PID.TID 0000.0001) PTRACERS_diffKh = /* Laplacian Diffusivity */
(PID.TID 0000.0001)                 0.000000000000000E+00
(PID.TID 0000.0001)     ;
(PID.TID 0000.0001) PTRACERS_diffK4 = /* Biharmonic Diffusivity */
(PID.TID 0000.0001)                 0.000000000000000E+00
(PID.TID 0000.0001)     ;
(PID.TID 0000.0001) PTRACERS_diffKrNr = /* Vertical Diffusivity */
(PID.TID 0000.0001)    15 @  1.000000000000000E-05              /* K =  1: 15 */
(PID.TID 0000.0001)     ;
(PID.TID 0000.0001) PTRACERS_useGMRedi = /* apply GM-Redi */
(PID.TID 0000.0001)                   T
(PID.TID 0000.0001)     ;
(PID.TID 0000.0001) PTRACERS_useDWNSLP = /* apply DOWN-SLOPE Flow */
(PID.TID 0000.0001)                   F
(PID.TID 0000.0001)     ;
(PID.TID 0000.0001) PTRACERS_useKPP = /* apply KPP scheme */
(PID.TID 0000.0001)                   F
(PID.TID 0000.0001)     ;
(PID.TID 0000.0001) PTRACERS_ref = /* Reference vertical profile */
(PID.TID 0000.0001)    15 @  0.000000000000000E+00              /* K =  1: 15 */
(PID.TID 0000.0001)     ;
(PID.TID 0000.0001) PTRACERS_EvPrRn =/* tracer conc. in Evap. & Rain */
(PID.TID 0000.0001)                 1.234567000000000E+05
(PID.TID 0000.0001)     ;
(PID.TID 0000.0001)  -----------------------------------
(PID.TID 0000.0001)  tracer number :   20
(PID.TID 0000.0001) PTRACERS_names = /* Tracer short name */
(PID.TID 0000.0001)               'NH4'
(PID.TID 0000.0001)     ;
(PID.TID 0000.0001) PTRACERS_long_names = /* Tracer long name */
(PID.TID 0000.0001)               ''
(PID.TID 0000.0001)     ;
(PID.TID 0000.0001) PTRACERS_ioLabel = /* tracer IO Label */
(PID.TID 0000.0001)               '20'
(PID.TID 0000.0001)     ;
(PID.TID 0000.0001) PTRACERS_advScheme = /* Advection Scheme */
(PID.TID 0000.0001)                      33
(PID.TID 0000.0001)     ;
(PID.TID 0000.0001) PTRACERS_SOM_Advection = /* tracer uses SOM advection scheme */
(PID.TID 0000.0001)                   F
(PID.TID 0000.0001)     ;
(PID.TID 0000.0001) PTRACERS_ImplVertAdv = /* implicit vert. advection flag */
(PID.TID 0000.0001)                   F
(PID.TID 0000.0001)     ;
(PID.TID 0000.0001) PTRACERS_MultiDimAdv = /* tracer uses Multi-Dim advection */
(PID.TID 0000.0001)                   T
(PID.TID 0000.0001)     ;
(PID.TID 0000.0001) PTRACERS_AdamsBashGtr = /* apply AB on tracer tendency */
(PID.TID 0000.0001)                   F
(PID.TID 0000.0001)     ;
(PID.TID 0000.0001) PTRACERS_AdamsBash_Tr = /* apply AB on passive tracer */
(PID.TID 0000.0001)                   F
(PID.TID 0000.0001)     ;
(PID.TID 0000.0001) PTRACERS_diffKh = /* Laplacian Diffusivity */
(PID.TID 0000.0001)                 0.000000000000000E+00
(PID.TID 0000.0001)     ;
(PID.TID 0000.0001) PTRACERS_diffK4 = /* Biharmonic Diffusivity */
(PID.TID 0000.0001)                 0.000000000000000E+00
(PID.TID 0000.0001)     ;
(PID.TID 0000.0001) PTRACERS_diffKrNr = /* Vertical Diffusivity */
(PID.TID 0000.0001)    15 @  1.000000000000000E-05              /* K =  1: 15 */
(PID.TID 0000.0001)     ;
(PID.TID 0000.0001) PTRACERS_useGMRedi = /* apply GM-Redi */
(PID.TID 0000.0001)                   T
(PID.TID 0000.0001)     ;
(PID.TID 0000.0001) PTRACERS_useDWNSLP = /* apply DOWN-SLOPE Flow */
(PID.TID 0000.0001)                   F
(PID.TID 0000.0001)     ;
(PID.TID 0000.0001) PTRACERS_useKPP = /* apply KPP scheme */
(PID.TID 0000.0001)                   F
(PID.TID 0000.0001)     ;
(PID.TID 0000.0001) PTRACERS_ref = /* Reference vertical profile */
(PID.TID 0000.0001)    15 @  0.000000000000000E+00              /* K =  1: 15 */
(PID.TID 0000.0001)     ;
(PID.TID 0000.0001) PTRACERS_EvPrRn =/* tracer conc. in Evap. & Rain */
(PID.TID 0000.0001)                 1.234567000000000E+05
(PID.TID 0000.0001)     ;
(PID.TID 0000.0001)  -----------------------------------
(PID.TID 0000.0001)  tracer number :   21
(PID.TID 0000.0001) PTRACERS_names = /* Tracer short name */
(PID.TID 0000.0001)               'NO2'
(PID.TID 0000.0001)     ;
(PID.TID 0000.0001) PTRACERS_long_names = /* Tracer long name */
(PID.TID 0000.0001)               ''
(PID.TID 0000.0001)     ;
(PID.TID 0000.0001) PTRACERS_ioLabel = /* tracer IO Label */
(PID.TID 0000.0001)               '21'
(PID.TID 0000.0001)     ;
(PID.TID 0000.0001) PTRACERS_advScheme = /* Advection Scheme */
(PID.TID 0000.0001)                      33
(PID.TID 0000.0001)     ;
(PID.TID 0000.0001) PTRACERS_SOM_Advection = /* tracer uses SOM advection scheme */
(PID.TID 0000.0001)                   F
(PID.TID 0000.0001)     ;
(PID.TID 0000.0001) PTRACERS_ImplVertAdv = /* implicit vert. advection flag */
(PID.TID 0000.0001)                   F
(PID.TID 0000.0001)     ;
(PID.TID 0000.0001) PTRACERS_MultiDimAdv = /* tracer uses Multi-Dim advection */
(PID.TID 0000.0001)                   T
(PID.TID 0000.0001)     ;
(PID.TID 0000.0001) PTRACERS_AdamsBashGtr = /* apply AB on tracer tendency */
(PID.TID 0000.0001)                   F
(PID.TID 0000.0001)     ;
(PID.TID 0000.0001) PTRACERS_AdamsBash_Tr = /* apply AB on passive tracer */
(PID.TID 0000.0001)                   F
(PID.TID 0000.0001)     ;
(PID.TID 0000.0001) PTRACERS_diffKh = /* Laplacian Diffusivity */
(PID.TID 0000.0001)                 0.000000000000000E+00
(PID.TID 0000.0001)     ;
(PID.TID 0000.0001) PTRACERS_diffK4 = /* Biharmonic Diffusivity */
(PID.TID 0000.0001)                 0.000000000000000E+00
(PID.TID 0000.0001)     ;
(PID.TID 0000.0001) PTRACERS_diffKrNr = /* Vertical Diffusivity */
(PID.TID 0000.0001)    15 @  1.000000000000000E-05              /* K =  1: 15 */
(PID.TID 0000.0001)     ;
(PID.TID 0000.0001) PTRACERS_useGMRedi = /* apply GM-Redi */
(PID.TID 0000.0001)                   T
(PID.TID 0000.0001)     ;
(PID.TID 0000.0001) PTRACERS_useDWNSLP = /* apply DOWN-SLOPE Flow */
(PID.TID 0000.0001)                   F
(PID.TID 0000.0001)     ;
(PID.TID 0000.0001) PTRACERS_useKPP = /* apply KPP scheme */
(PID.TID 0000.0001)                   F
(PID.TID 0000.0001)     ;
(PID.TID 0000.0001) PTRACERS_ref = /* Reference vertical profile */
(PID.TID 0000.0001)    15 @  0.000000000000000E+00              /* K =  1: 15 */
(PID.TID 0000.0001)     ;
(PID.TID 0000.0001) PTRACERS_EvPrRn =/* tracer conc. in Evap. & Rain */
(PID.TID 0000.0001)                 1.234567000000000E+05
(PID.TID 0000.0001)     ;
(PID.TID 0000.0001)  -----------------------------------
(PID.TID 0000.0001)  tracer number :   22
(PID.TID 0000.0001) PTRACERS_names = /* Tracer short name */
(PID.TID 0000.0001)               'Phy01'
(PID.TID 0000.0001)     ;
(PID.TID 0000.0001) PTRACERS_long_names = /* Tracer long name */
(PID.TID 0000.0001)               ''
(PID.TID 0000.0001)     ;
(PID.TID 0000.0001) PTRACERS_ioLabel = /* tracer IO Label */
(PID.TID 0000.0001)               '22'
(PID.TID 0000.0001)     ;
(PID.TID 0000.0001) PTRACERS_advScheme = /* Advection Scheme */
(PID.TID 0000.0001)                      33
(PID.TID 0000.0001)     ;
(PID.TID 0000.0001) PTRACERS_SOM_Advection = /* tracer uses SOM advection scheme */
(PID.TID 0000.0001)                   F
(PID.TID 0000.0001)     ;
(PID.TID 0000.0001) PTRACERS_ImplVertAdv = /* implicit vert. advection flag */
(PID.TID 0000.0001)                   F
(PID.TID 0000.0001)     ;
(PID.TID 0000.0001) PTRACERS_MultiDimAdv = /* tracer uses Multi-Dim advection */
(PID.TID 0000.0001)                   T
(PID.TID 0000.0001)     ;
(PID.TID 0000.0001) PTRACERS_AdamsBashGtr = /* apply AB on tracer tendency */
(PID.TID 0000.0001)                   F
(PID.TID 0000.0001)     ;
(PID.TID 0000.0001) PTRACERS_AdamsBash_Tr = /* apply AB on passive tracer */
(PID.TID 0000.0001)                   F
(PID.TID 0000.0001)     ;
(PID.TID 0000.0001) PTRACERS_diffKh = /* Laplacian Diffusivity */
(PID.TID 0000.0001)                 0.000000000000000E+00
(PID.TID 0000.0001)     ;
(PID.TID 0000.0001) PTRACERS_diffK4 = /* Biharmonic Diffusivity */
(PID.TID 0000.0001)                 0.000000000000000E+00
(PID.TID 0000.0001)     ;
(PID.TID 0000.0001) PTRACERS_diffKrNr = /* Vertical Diffusivity */
(PID.TID 0000.0001)    15 @  1.000000000000000E-05              /* K =  1: 15 */
(PID.TID 0000.0001)     ;
(PID.TID 0000.0001) PTRACERS_useGMRedi = /* apply GM-Redi */
(PID.TID 0000.0001)                   T
(PID.TID 0000.0001)     ;
(PID.TID 0000.0001) PTRACERS_useDWNSLP = /* apply DOWN-SLOPE Flow */
(PID.TID 0000.0001)                   F
(PID.TID 0000.0001)     ;
(PID.TID 0000.0001) PTRACERS_useKPP = /* apply KPP scheme */
(PID.TID 0000.0001)                   F
(PID.TID 0000.0001)     ;
(PID.TID 0000.0001) PTRACERS_ref = /* Reference vertical profile */
(PID.TID 0000.0001)    15 @  0.000000000000000E+00              /* K =  1: 15 */
(PID.TID 0000.0001)     ;
(PID.TID 0000.0001) PTRACERS_EvPrRn =/* tracer conc. in Evap. & Rain */
(PID.TID 0000.0001)                 1.234567000000000E+05
(PID.TID 0000.0001)     ;
(PID.TID 0000.0001)  -----------------------------------
(PID.TID 0000.0001)  tracer number :   23
(PID.TID 0000.0001) PTRACERS_names = /* Tracer short name */
(PID.TID 0000.0001)               'Phy02'
(PID.TID 0000.0001)     ;
(PID.TID 0000.0001) PTRACERS_long_names = /* Tracer long name */
(PID.TID 0000.0001)               ''
(PID.TID 0000.0001)     ;
(PID.TID 0000.0001) PTRACERS_ioLabel = /* tracer IO Label */
(PID.TID 0000.0001)               '23'
(PID.TID 0000.0001)     ;
(PID.TID 0000.0001) PTRACERS_advScheme = /* Advection Scheme */
(PID.TID 0000.0001)                      33
(PID.TID 0000.0001)     ;
(PID.TID 0000.0001) PTRACERS_SOM_Advection = /* tracer uses SOM advection scheme */
(PID.TID 0000.0001)                   F
(PID.TID 0000.0001)     ;
(PID.TID 0000.0001) PTRACERS_ImplVertAdv = /* implicit vert. advection flag */
(PID.TID 0000.0001)                   F
(PID.TID 0000.0001)     ;
(PID.TID 0000.0001) PTRACERS_MultiDimAdv = /* tracer uses Multi-Dim advection */
(PID.TID 0000.0001)                   T
(PID.TID 0000.0001)     ;
(PID.TID 0000.0001) PTRACERS_AdamsBashGtr = /* apply AB on tracer tendency */
(PID.TID 0000.0001)                   F
(PID.TID 0000.0001)     ;
(PID.TID 0000.0001) PTRACERS_AdamsBash_Tr = /* apply AB on passive tracer */
(PID.TID 0000.0001)                   F
(PID.TID 0000.0001)     ;
(PID.TID 0000.0001) PTRACERS_diffKh = /* Laplacian Diffusivity */
(PID.TID 0000.0001)                 0.000000000000000E+00
(PID.TID 0000.0001)     ;
(PID.TID 0000.0001) PTRACERS_diffK4 = /* Biharmonic Diffusivity */
(PID.TID 0000.0001)                 0.000000000000000E+00
(PID.TID 0000.0001)     ;
(PID.TID 0000.0001) PTRACERS_diffKrNr = /* Vertical Diffusivity */
(PID.TID 0000.0001)    15 @  1.000000000000000E-05              /* K =  1: 15 */
(PID.TID 0000.0001)     ;
(PID.TID 0000.0001) PTRACERS_useGMRedi = /* apply GM-Redi */
(PID.TID 0000.0001)                   T
(PID.TID 0000.0001)     ;
(PID.TID 0000.0001) PTRACERS_useDWNSLP = /* apply DOWN-SLOPE Flow */
(PID.TID 0000.0001)                   F
(PID.TID 0000.0001)     ;
(PID.TID 0000.0001) PTRACERS_useKPP = /* apply KPP scheme */
(PID.TID 0000.0001)                   F
(PID.TID 0000.0001)     ;
(PID.TID 0000.0001) PTRACERS_ref = /* Reference vertical profile */
(PID.TID 0000.0001)    15 @  0.000000000000000E+00              /* K =  1: 15 */
(PID.TID 0000.0001)     ;
(PID.TID 0000.0001) PTRACERS_EvPrRn =/* tracer conc. in Evap. & Rain */
(PID.TID 0000.0001)                 1.234567000000000E+05
(PID.TID 0000.0001)     ;
(PID.TID 0000.0001)  -----------------------------------
(PID.TID 0000.0001)  tracer number :   24
(PID.TID 0000.0001) PTRACERS_names = /* Tracer short name */
(PID.TID 0000.0001)               'Phy03'
(PID.TID 0000.0001)     ;
(PID.TID 0000.0001) PTRACERS_long_names = /* Tracer long name */
(PID.TID 0000.0001)               ''
(PID.TID 0000.0001)     ;
(PID.TID 0000.0001) PTRACERS_ioLabel = /* tracer IO Label */
(PID.TID 0000.0001)               '24'
(PID.TID 0000.0001)     ;
(PID.TID 0000.0001) PTRACERS_advScheme = /* Advection Scheme */
(PID.TID 0000.0001)                      33
(PID.TID 0000.0001)     ;
(PID.TID 0000.0001) PTRACERS_SOM_Advection = /* tracer uses SOM advection scheme */
(PID.TID 0000.0001)                   F
(PID.TID 0000.0001)     ;
(PID.TID 0000.0001) PTRACERS_ImplVertAdv = /* implicit vert. advection flag */
(PID.TID 0000.0001)                   F
(PID.TID 0000.0001)     ;
(PID.TID 0000.0001) PTRACERS_MultiDimAdv = /* tracer uses Multi-Dim advection */
(PID.TID 0000.0001)                   T
(PID.TID 0000.0001)     ;
(PID.TID 0000.0001) PTRACERS_AdamsBashGtr = /* apply AB on tracer tendency */
(PID.TID 0000.0001)                   F
(PID.TID 0000.0001)     ;
(PID.TID 0000.0001) PTRACERS_AdamsBash_Tr = /* apply AB on passive tracer */
(PID.TID 0000.0001)                   F
(PID.TID 0000.0001)     ;
(PID.TID 0000.0001) PTRACERS_diffKh = /* Laplacian Diffusivity */
(PID.TID 0000.0001)                 0.000000000000000E+00
(PID.TID 0000.0001)     ;
(PID.TID 0000.0001) PTRACERS_diffK4 = /* Biharmonic Diffusivity */
(PID.TID 0000.0001)                 0.000000000000000E+00
(PID.TID 0000.0001)     ;
(PID.TID 0000.0001) PTRACERS_diffKrNr = /* Vertical Diffusivity */
(PID.TID 0000.0001)    15 @  1.000000000000000E-05              /* K =  1: 15 */
(PID.TID 0000.0001)     ;
(PID.TID 0000.0001) PTRACERS_useGMRedi = /* apply GM-Redi */
(PID.TID 0000.0001)                   T
(PID.TID 0000.0001)     ;
(PID.TID 0000.0001) PTRACERS_useDWNSLP = /* apply DOWN-SLOPE Flow */
(PID.TID 0000.0001)                   F
(PID.TID 0000.0001)     ;
(PID.TID 0000.0001) PTRACERS_useKPP = /* apply KPP scheme */
(PID.TID 0000.0001)                   F
(PID.TID 0000.0001)     ;
(PID.TID 0000.0001) PTRACERS_ref = /* Reference vertical profile */
(PID.TID 0000.0001)    15 @  0.000000000000000E+00              /* K =  1: 15 */
(PID.TID 0000.0001)     ;
(PID.TID 0000.0001) PTRACERS_EvPrRn =/* tracer conc. in Evap. & Rain */
(PID.TID 0000.0001)                 1.234567000000000E+05
(PID.TID 0000.0001)     ;
(PID.TID 0000.0001)  -----------------------------------
(PID.TID 0000.0001)  tracer number :   25
(PID.TID 0000.0001) PTRACERS_names = /* Tracer short name */
(PID.TID 0000.0001)               'Phy04'
(PID.TID 0000.0001)     ;
(PID.TID 0000.0001) PTRACERS_long_names = /* Tracer long name */
(PID.TID 0000.0001)               ''
(PID.TID 0000.0001)     ;
(PID.TID 0000.0001) PTRACERS_ioLabel = /* tracer IO Label */
(PID.TID 0000.0001)               '25'
(PID.TID 0000.0001)     ;
(PID.TID 0000.0001) PTRACERS_advScheme = /* Advection Scheme */
(PID.TID 0000.0001)                      33
(PID.TID 0000.0001)     ;
(PID.TID 0000.0001) PTRACERS_SOM_Advection = /* tracer uses SOM advection scheme */
(PID.TID 0000.0001)                   F
(PID.TID 0000.0001)     ;
(PID.TID 0000.0001) PTRACERS_ImplVertAdv = /* implicit vert. advection flag */
(PID.TID 0000.0001)                   F
(PID.TID 0000.0001)     ;
(PID.TID 0000.0001) PTRACERS_MultiDimAdv = /* tracer uses Multi-Dim advection */
(PID.TID 0000.0001)                   T
(PID.TID 0000.0001)     ;
(PID.TID 0000.0001) PTRACERS_AdamsBashGtr = /* apply AB on tracer tendency */
(PID.TID 0000.0001)                   F
(PID.TID 0000.0001)     ;
(PID.TID 0000.0001) PTRACERS_AdamsBash_Tr = /* apply AB on passive tracer */
(PID.TID 0000.0001)                   F
(PID.TID 0000.0001)     ;
(PID.TID 0000.0001) PTRACERS_diffKh = /* Laplacian Diffusivity */
(PID.TID 0000.0001)                 0.000000000000000E+00
(PID.TID 0000.0001)     ;
(PID.TID 0000.0001) PTRACERS_diffK4 = /* Biharmonic Diffusivity */
(PID.TID 0000.0001)                 0.000000000000000E+00
(PID.TID 0000.0001)     ;
(PID.TID 0000.0001) PTRACERS_diffKrNr = /* Vertical Diffusivity */
(PID.TID 0000.0001)    15 @  1.000000000000000E-05              /* K =  1: 15 */
(PID.TID 0000.0001)     ;
(PID.TID 0000.0001) PTRACERS_useGMRedi = /* apply GM-Redi */
(PID.TID 0000.0001)                   T
(PID.TID 0000.0001)     ;
(PID.TID 0000.0001) PTRACERS_useDWNSLP = /* apply DOWN-SLOPE Flow */
(PID.TID 0000.0001)                   F
(PID.TID 0000.0001)     ;
(PID.TID 0000.0001) PTRACERS_useKPP = /* apply KPP scheme */
(PID.TID 0000.0001)                   F
(PID.TID 0000.0001)     ;
(PID.TID 0000.0001) PTRACERS_ref = /* Reference vertical profile */
(PID.TID 0000.0001)    15 @  0.000000000000000E+00              /* K =  1: 15 */
(PID.TID 0000.0001)     ;
(PID.TID 0000.0001) PTRACERS_EvPrRn =/* tracer conc. in Evap. & Rain */
(PID.TID 0000.0001)                 1.234567000000000E+05
(PID.TID 0000.0001)     ;
(PID.TID 0000.0001)  -----------------------------------
(PID.TID 0000.0001)  tracer number :   26
(PID.TID 0000.0001) PTRACERS_names = /* Tracer short name */
(PID.TID 0000.0001)               'Phy05'
(PID.TID 0000.0001)     ;
(PID.TID 0000.0001) PTRACERS_long_names = /* Tracer long name */
(PID.TID 0000.0001)               ''
(PID.TID 0000.0001)     ;
(PID.TID 0000.0001) PTRACERS_ioLabel = /* tracer IO Label */
(PID.TID 0000.0001)               '26'
(PID.TID 0000.0001)     ;
(PID.TID 0000.0001) PTRACERS_advScheme = /* Advection Scheme */
(PID.TID 0000.0001)                      33
(PID.TID 0000.0001)     ;
(PID.TID 0000.0001) PTRACERS_SOM_Advection = /* tracer uses SOM advection scheme */
(PID.TID 0000.0001)                   F
(PID.TID 0000.0001)     ;
(PID.TID 0000.0001) PTRACERS_ImplVertAdv = /* implicit vert. advection flag */
(PID.TID 0000.0001)                   F
(PID.TID 0000.0001)     ;
(PID.TID 0000.0001) PTRACERS_MultiDimAdv = /* tracer uses Multi-Dim advection */
(PID.TID 0000.0001)                   T
(PID.TID 0000.0001)     ;
(PID.TID 0000.0001) PTRACERS_AdamsBashGtr = /* apply AB on tracer tendency */
(PID.TID 0000.0001)                   F
(PID.TID 0000.0001)     ;
(PID.TID 0000.0001) PTRACERS_AdamsBash_Tr = /* apply AB on passive tracer */
(PID.TID 0000.0001)                   F
(PID.TID 0000.0001)     ;
(PID.TID 0000.0001) PTRACERS_diffKh = /* Laplacian Diffusivity */
(PID.TID 0000.0001)                 0.000000000000000E+00
(PID.TID 0000.0001)     ;
(PID.TID 0000.0001) PTRACERS_diffK4 = /* Biharmonic Diffusivity */
(PID.TID 0000.0001)                 0.000000000000000E+00
(PID.TID 0000.0001)     ;
(PID.TID 0000.0001) PTRACERS_diffKrNr = /* Vertical Diffusivity */
(PID.TID 0000.0001)    15 @  1.000000000000000E-05              /* K =  1: 15 */
(PID.TID 0000.0001)     ;
(PID.TID 0000.0001) PTRACERS_useGMRedi = /* apply GM-Redi */
(PID.TID 0000.0001)                   T
(PID.TID 0000.0001)     ;
(PID.TID 0000.0001) PTRACERS_useDWNSLP = /* apply DOWN-SLOPE Flow */
(PID.TID 0000.0001)                   F
(PID.TID 0000.0001)     ;
(PID.TID 0000.0001) PTRACERS_useKPP = /* apply KPP scheme */
(PID.TID 0000.0001)                   F
(PID.TID 0000.0001)     ;
(PID.TID 0000.0001) PTRACERS_ref = /* Reference vertical profile */
(PID.TID 0000.0001)    15 @  0.000000000000000E+00              /* K =  1: 15 */
(PID.TID 0000.0001)     ;
(PID.TID 0000.0001) PTRACERS_EvPrRn =/* tracer conc. in Evap. & Rain */
(PID.TID 0000.0001)                 1.234567000000000E+05
(PID.TID 0000.0001)     ;
(PID.TID 0000.0001)  -----------------------------------
(PID.TID 0000.0001)  tracer number :   27
(PID.TID 0000.0001) PTRACERS_names = /* Tracer short name */
(PID.TID 0000.0001)               'Chl01'
(PID.TID 0000.0001)     ;
(PID.TID 0000.0001) PTRACERS_long_names = /* Tracer long name */
(PID.TID 0000.0001)               ''
(PID.TID 0000.0001)     ;
(PID.TID 0000.0001) PTRACERS_ioLabel = /* tracer IO Label */
(PID.TID 0000.0001)               '27'
(PID.TID 0000.0001)     ;
(PID.TID 0000.0001) PTRACERS_advScheme = /* Advection Scheme */
(PID.TID 0000.0001)                      33
(PID.TID 0000.0001)     ;
(PID.TID 0000.0001) PTRACERS_SOM_Advection = /* tracer uses SOM advection scheme */
(PID.TID 0000.0001)                   F
(PID.TID 0000.0001)     ;
(PID.TID 0000.0001) PTRACERS_ImplVertAdv = /* implicit vert. advection flag */
(PID.TID 0000.0001)                   F
(PID.TID 0000.0001)     ;
(PID.TID 0000.0001) PTRACERS_MultiDimAdv = /* tracer uses Multi-Dim advection */
(PID.TID 0000.0001)                   T
(PID.TID 0000.0001)     ;
(PID.TID 0000.0001) PTRACERS_AdamsBashGtr = /* apply AB on tracer tendency */
(PID.TID 0000.0001)                   F
(PID.TID 0000.0001)     ;
(PID.TID 0000.0001) PTRACERS_AdamsBash_Tr = /* apply AB on passive tracer */
(PID.TID 0000.0001)                   F
(PID.TID 0000.0001)     ;
(PID.TID 0000.0001) PTRACERS_diffKh = /* Laplacian Diffusivity */
(PID.TID 0000.0001)                 0.000000000000000E+00
(PID.TID 0000.0001)     ;
(PID.TID 0000.0001) PTRACERS_diffK4 = /* Biharmonic Diffusivity */
(PID.TID 0000.0001)                 0.000000000000000E+00
(PID.TID 0000.0001)     ;
(PID.TID 0000.0001) PTRACERS_diffKrNr = /* Vertical Diffusivity */
(PID.TID 0000.0001)    15 @  1.000000000000000E-05              /* K =  1: 15 */
(PID.TID 0000.0001)     ;
(PID.TID 0000.0001) PTRACERS_useGMRedi = /* apply GM-Redi */
(PID.TID 0000.0001)                   T
(PID.TID 0000.0001)     ;
(PID.TID 0000.0001) PTRACERS_useDWNSLP = /* apply DOWN-SLOPE Flow */
(PID.TID 0000.0001)                   F
(PID.TID 0000.0001)     ;
(PID.TID 0000.0001) PTRACERS_useKPP = /* apply KPP scheme */
(PID.TID 0000.0001)                   F
(PID.TID 0000.0001)     ;
(PID.TID 0000.0001) PTRACERS_ref = /* Reference vertical profile */
(PID.TID 0000.0001)    15 @  0.000000000000000E+00              /* K =  1: 15 */
(PID.TID 0000.0001)     ;
(PID.TID 0000.0001) PTRACERS_EvPrRn =/* tracer conc. in Evap. & Rain */
(PID.TID 0000.0001)                 1.234567000000000E+05
(PID.TID 0000.0001)     ;
(PID.TID 0000.0001)  -----------------------------------
(PID.TID 0000.0001)  tracer number :   28
(PID.TID 0000.0001) PTRACERS_names = /* Tracer short name */
(PID.TID 0000.0001)               'Chl02'
(PID.TID 0000.0001)     ;
(PID.TID 0000.0001) PTRACERS_long_names = /* Tracer long name */
(PID.TID 0000.0001)               ''
(PID.TID 0000.0001)     ;
(PID.TID 0000.0001) PTRACERS_ioLabel = /* tracer IO Label */
(PID.TID 0000.0001)               '28'
(PID.TID 0000.0001)     ;
(PID.TID 0000.0001) PTRACERS_advScheme = /* Advection Scheme */
(PID.TID 0000.0001)                      33
(PID.TID 0000.0001)     ;
(PID.TID 0000.0001) PTRACERS_SOM_Advection = /* tracer uses SOM advection scheme */
(PID.TID 0000.0001)                   F
(PID.TID 0000.0001)     ;
(PID.TID 0000.0001) PTRACERS_ImplVertAdv = /* implicit vert. advection flag */
(PID.TID 0000.0001)                   F
(PID.TID 0000.0001)     ;
(PID.TID 0000.0001) PTRACERS_MultiDimAdv = /* tracer uses Multi-Dim advection */
(PID.TID 0000.0001)                   T
(PID.TID 0000.0001)     ;
(PID.TID 0000.0001) PTRACERS_AdamsBashGtr = /* apply AB on tracer tendency */
(PID.TID 0000.0001)                   F
(PID.TID 0000.0001)     ;
(PID.TID 0000.0001) PTRACERS_AdamsBash_Tr = /* apply AB on passive tracer */
(PID.TID 0000.0001)                   F
(PID.TID 0000.0001)     ;
(PID.TID 0000.0001) PTRACERS_diffKh = /* Laplacian Diffusivity */
(PID.TID 0000.0001)                 0.000000000000000E+00
(PID.TID 0000.0001)     ;
(PID.TID 0000.0001) PTRACERS_diffK4 = /* Biharmonic Diffusivity */
(PID.TID 0000.0001)                 0.000000000000000E+00
(PID.TID 0000.0001)     ;
(PID.TID 0000.0001) PTRACERS_diffKrNr = /* Vertical Diffusivity */
(PID.TID 0000.0001)    15 @  1.000000000000000E-05              /* K =  1: 15 */
(PID.TID 0000.0001)     ;
(PID.TID 0000.0001) PTRACERS_useGMRedi = /* apply GM-Redi */
(PID.TID 0000.0001)                   T
(PID.TID 0000.0001)     ;
(PID.TID 0000.0001) PTRACERS_useDWNSLP = /* apply DOWN-SLOPE Flow */
(PID.TID 0000.0001)                   F
(PID.TID 0000.0001)     ;
(PID.TID 0000.0001) PTRACERS_useKPP = /* apply KPP scheme */
(PID.TID 0000.0001)                   F
(PID.TID 0000.0001)     ;
(PID.TID 0000.0001) PTRACERS_ref = /* Reference vertical profile */
(PID.TID 0000.0001)    15 @  0.000000000000000E+00              /* K =  1: 15 */
(PID.TID 0000.0001)     ;
(PID.TID 0000.0001) PTRACERS_EvPrRn =/* tracer conc. in Evap. & Rain */
(PID.TID 0000.0001)                 1.234567000000000E+05
(PID.TID 0000.0001)     ;
(PID.TID 0000.0001)  -----------------------------------
(PID.TID 0000.0001)  tracer number :   29
(PID.TID 0000.0001) PTRACERS_names = /* Tracer short name */
(PID.TID 0000.0001)               'Chl03'
(PID.TID 0000.0001)     ;
(PID.TID 0000.0001) PTRACERS_long_names = /* Tracer long name */
(PID.TID 0000.0001)               ''
(PID.TID 0000.0001)     ;
(PID.TID 0000.0001) PTRACERS_ioLabel = /* tracer IO Label */
(PID.TID 0000.0001)               '29'
(PID.TID 0000.0001)     ;
(PID.TID 0000.0001) PTRACERS_advScheme = /* Advection Scheme */
(PID.TID 0000.0001)                      33
(PID.TID 0000.0001)     ;
(PID.TID 0000.0001) PTRACERS_SOM_Advection = /* tracer uses SOM advection scheme */
(PID.TID 0000.0001)                   F
(PID.TID 0000.0001)     ;
(PID.TID 0000.0001) PTRACERS_ImplVertAdv = /* implicit vert. advection flag */
(PID.TID 0000.0001)                   F
(PID.TID 0000.0001)     ;
(PID.TID 0000.0001) PTRACERS_MultiDimAdv = /* tracer uses Multi-Dim advection */
(PID.TID 0000.0001)                   T
(PID.TID 0000.0001)     ;
(PID.TID 0000.0001) PTRACERS_AdamsBashGtr = /* apply AB on tracer tendency */
(PID.TID 0000.0001)                   F
(PID.TID 0000.0001)     ;
(PID.TID 0000.0001) PTRACERS_AdamsBash_Tr = /* apply AB on passive tracer */
(PID.TID 0000.0001)                   F
(PID.TID 0000.0001)     ;
(PID.TID 0000.0001) PTRACERS_diffKh = /* Laplacian Diffusivity */
(PID.TID 0000.0001)                 0.000000000000000E+00
(PID.TID 0000.0001)     ;
(PID.TID 0000.0001) PTRACERS_diffK4 = /* Biharmonic Diffusivity */
(PID.TID 0000.0001)                 0.000000000000000E+00
(PID.TID 0000.0001)     ;
(PID.TID 0000.0001) PTRACERS_diffKrNr = /* Vertical Diffusivity */
(PID.TID 0000.0001)    15 @  1.000000000000000E-05              /* K =  1: 15 */
(PID.TID 0000.0001)     ;
(PID.TID 0000.0001) PTRACERS_useGMRedi = /* apply GM-Redi */
(PID.TID 0000.0001)                   T
(PID.TID 0000.0001)     ;
(PID.TID 0000.0001) PTRACERS_useDWNSLP = /* apply DOWN-SLOPE Flow */
(PID.TID 0000.0001)                   F
(PID.TID 0000.0001)     ;
(PID.TID 0000.0001) PTRACERS_useKPP = /* apply KPP scheme */
(PID.TID 0000.0001)                   F
(PID.TID 0000.0001)     ;
(PID.TID 0000.0001) PTRACERS_ref = /* Reference vertical profile */
(PID.TID 0000.0001)    15 @  0.000000000000000E+00              /* K =  1: 15 */
(PID.TID 0000.0001)     ;
(PID.TID 0000.0001) PTRACERS_EvPrRn =/* tracer conc. in Evap. & Rain */
(PID.TID 0000.0001)                 1.234567000000000E+05
(PID.TID 0000.0001)     ;
(PID.TID 0000.0001)  -----------------------------------
(PID.TID 0000.0001)  tracer number :   30
(PID.TID 0000.0001) PTRACERS_names = /* Tracer short name */
(PID.TID 0000.0001)               'Chl04'
(PID.TID 0000.0001)     ;
(PID.TID 0000.0001) PTRACERS_long_names = /* Tracer long name */
(PID.TID 0000.0001)               ''
(PID.TID 0000.0001)     ;
(PID.TID 0000.0001) PTRACERS_ioLabel = /* tracer IO Label */
(PID.TID 0000.0001)               '30'
(PID.TID 0000.0001)     ;
(PID.TID 0000.0001) PTRACERS_advScheme = /* Advection Scheme */
(PID.TID 0000.0001)                      33
(PID.TID 0000.0001)     ;
(PID.TID 0000.0001) PTRACERS_SOM_Advection = /* tracer uses SOM advection scheme */
(PID.TID 0000.0001)                   F
(PID.TID 0000.0001)     ;
(PID.TID 0000.0001) PTRACERS_ImplVertAdv = /* implicit vert. advection flag */
(PID.TID 0000.0001)                   F
(PID.TID 0000.0001)     ;
(PID.TID 0000.0001) PTRACERS_MultiDimAdv = /* tracer uses Multi-Dim advection */
(PID.TID 0000.0001)                   T
(PID.TID 0000.0001)     ;
(PID.TID 0000.0001) PTRACERS_AdamsBashGtr = /* apply AB on tracer tendency */
(PID.TID 0000.0001)                   F
(PID.TID 0000.0001)     ;
(PID.TID 0000.0001) PTRACERS_AdamsBash_Tr = /* apply AB on passive tracer */
(PID.TID 0000.0001)                   F
(PID.TID 0000.0001)     ;
(PID.TID 0000.0001) PTRACERS_diffKh = /* Laplacian Diffusivity */
(PID.TID 0000.0001)                 0.000000000000000E+00
(PID.TID 0000.0001)     ;
(PID.TID 0000.0001) PTRACERS_diffK4 = /* Biharmonic Diffusivity */
(PID.TID 0000.0001)                 0.000000000000000E+00
(PID.TID 0000.0001)     ;
(PID.TID 0000.0001) PTRACERS_diffKrNr = /* Vertical Diffusivity */
(PID.TID 0000.0001)    15 @  1.000000000000000E-05              /* K =  1: 15 */
(PID.TID 0000.0001)     ;
(PID.TID 0000.0001) PTRACERS_useGMRedi = /* apply GM-Redi */
(PID.TID 0000.0001)                   T
(PID.TID 0000.0001)     ;
(PID.TID 0000.0001) PTRACERS_useDWNSLP = /* apply DOWN-SLOPE Flow */
(PID.TID 0000.0001)                   F
(PID.TID 0000.0001)     ;
(PID.TID 0000.0001) PTRACERS_useKPP = /* apply KPP scheme */
(PID.TID 0000.0001)                   F
(PID.TID 0000.0001)     ;
(PID.TID 0000.0001) PTRACERS_ref = /* Reference vertical profile */
(PID.TID 0000.0001)    15 @  0.000000000000000E+00              /* K =  1: 15 */
(PID.TID 0000.0001)     ;
(PID.TID 0000.0001) PTRACERS_EvPrRn =/* tracer conc. in Evap. & Rain */
(PID.TID 0000.0001)                 1.234567000000000E+05
(PID.TID 0000.0001)     ;
(PID.TID 0000.0001)  -----------------------------------
(PID.TID 0000.0001)  tracer number :   31
(PID.TID 0000.0001) PTRACERS_names = /* Tracer short name */
(PID.TID 0000.0001)               'Chl05'
(PID.TID 0000.0001)     ;
(PID.TID 0000.0001) PTRACERS_long_names = /* Tracer long name */
(PID.TID 0000.0001)               ''
(PID.TID 0000.0001)     ;
(PID.TID 0000.0001) PTRACERS_ioLabel = /* tracer IO Label */
(PID.TID 0000.0001)               '31'
(PID.TID 0000.0001)     ;
(PID.TID 0000.0001) PTRACERS_advScheme = /* Advection Scheme */
(PID.TID 0000.0001)                      33
(PID.TID 0000.0001)     ;
(PID.TID 0000.0001) PTRACERS_SOM_Advection = /* tracer uses SOM advection scheme */
(PID.TID 0000.0001)                   F
(PID.TID 0000.0001)     ;
(PID.TID 0000.0001) PTRACERS_ImplVertAdv = /* implicit vert. advection flag */
(PID.TID 0000.0001)                   F
(PID.TID 0000.0001)     ;
(PID.TID 0000.0001) PTRACERS_MultiDimAdv = /* tracer uses Multi-Dim advection */
(PID.TID 0000.0001)                   T
(PID.TID 0000.0001)     ;
(PID.TID 0000.0001) PTRACERS_AdamsBashGtr = /* apply AB on tracer tendency */
(PID.TID 0000.0001)                   F
(PID.TID 0000.0001)     ;
(PID.TID 0000.0001) PTRACERS_AdamsBash_Tr = /* apply AB on passive tracer */
(PID.TID 0000.0001)                   F
(PID.TID 0000.0001)     ;
(PID.TID 0000.0001) PTRACERS_diffKh = /* Laplacian Diffusivity */
(PID.TID 0000.0001)                 0.000000000000000E+00
(PID.TID 0000.0001)     ;
(PID.TID 0000.0001) PTRACERS_diffK4 = /* Biharmonic Diffusivity */
(PID.TID 0000.0001)                 0.000000000000000E+00
(PID.TID 0000.0001)     ;
(PID.TID 0000.0001) PTRACERS_diffKrNr = /* Vertical Diffusivity */
(PID.TID 0000.0001)    15 @  1.000000000000000E-05              /* K =  1: 15 */
(PID.TID 0000.0001)     ;
(PID.TID 0000.0001) PTRACERS_useGMRedi = /* apply GM-Redi */
(PID.TID 0000.0001)                   T
(PID.TID 0000.0001)     ;
(PID.TID 0000.0001) PTRACERS_useDWNSLP = /* apply DOWN-SLOPE Flow */
(PID.TID 0000.0001)                   F
(PID.TID 0000.0001)     ;
(PID.TID 0000.0001) PTRACERS_useKPP = /* apply KPP scheme */
(PID.TID 0000.0001)                   F
(PID.TID 0000.0001)     ;
(PID.TID 0000.0001) PTRACERS_ref = /* Reference vertical profile */
(PID.TID 0000.0001)    15 @  0.000000000000000E+00              /* K =  1: 15 */
(PID.TID 0000.0001)     ;
(PID.TID 0000.0001) PTRACERS_EvPrRn =/* tracer conc. in Evap. & Rain */
(PID.TID 0000.0001)                 1.234567000000000E+05
(PID.TID 0000.0001)     ;
(PID.TID 0000.0001)  -----------------------------------
(PID.TID 0000.0001)  tracer number :   32
(PID.TID 0000.0001) PTRACERS_names = /* Tracer short name */
(PID.TID 0000.0001)               'DIC'
(PID.TID 0000.0001)     ;
(PID.TID 0000.0001) PTRACERS_long_names = /* Tracer long name */
(PID.TID 0000.0001)               ''
(PID.TID 0000.0001)     ;
(PID.TID 0000.0001) PTRACERS_ioLabel = /* tracer IO Label */
(PID.TID 0000.0001)               '32'
(PID.TID 0000.0001)     ;
(PID.TID 0000.0001) PTRACERS_advScheme = /* Advection Scheme */
(PID.TID 0000.0001)                      33
(PID.TID 0000.0001)     ;
(PID.TID 0000.0001) PTRACERS_SOM_Advection = /* tracer uses SOM advection scheme */
(PID.TID 0000.0001)                   F
(PID.TID 0000.0001)     ;
(PID.TID 0000.0001) PTRACERS_ImplVertAdv = /* implicit vert. advection flag */
(PID.TID 0000.0001)                   F
(PID.TID 0000.0001)     ;
(PID.TID 0000.0001) PTRACERS_MultiDimAdv = /* tracer uses Multi-Dim advection */
(PID.TID 0000.0001)                   T
(PID.TID 0000.0001)     ;
(PID.TID 0000.0001) PTRACERS_AdamsBashGtr = /* apply AB on tracer tendency */
(PID.TID 0000.0001)                   F
(PID.TID 0000.0001)     ;
(PID.TID 0000.0001) PTRACERS_AdamsBash_Tr = /* apply AB on passive tracer */
(PID.TID 0000.0001)                   F
(PID.TID 0000.0001)     ;
(PID.TID 0000.0001) PTRACERS_diffKh = /* Laplacian Diffusivity */
(PID.TID 0000.0001)                 0.000000000000000E+00
(PID.TID 0000.0001)     ;
(PID.TID 0000.0001) PTRACERS_diffK4 = /* Biharmonic Diffusivity */
(PID.TID 0000.0001)                 0.000000000000000E+00
(PID.TID 0000.0001)     ;
(PID.TID 0000.0001) PTRACERS_diffKrNr = /* Vertical Diffusivity */
(PID.TID 0000.0001)    15 @  1.000000000000000E-05              /* K =  1: 15 */
(PID.TID 0000.0001)     ;
(PID.TID 0000.0001) PTRACERS_useGMRedi = /* apply GM-Redi */
(PID.TID 0000.0001)                   T
(PID.TID 0000.0001)     ;
(PID.TID 0000.0001) PTRACERS_useDWNSLP = /* apply DOWN-SLOPE Flow */
(PID.TID 0000.0001)                   F
(PID.TID 0000.0001)     ;
(PID.TID 0000.0001) PTRACERS_useKPP = /* apply KPP scheme */
(PID.TID 0000.0001)                   F
(PID.TID 0000.0001)     ;
(PID.TID 0000.0001) PTRACERS_ref = /* Reference vertical profile */
(PID.TID 0000.0001)    15 @  0.000000000000000E+00              /* K =  1: 15 */
(PID.TID 0000.0001)     ;
(PID.TID 0000.0001) PTRACERS_EvPrRn =/* tracer conc. in Evap. & Rain */
(PID.TID 0000.0001)                 0.000000000000000E+00
(PID.TID 0000.0001)     ;
(PID.TID 0000.0001)  -----------------------------------
(PID.TID 0000.0001)  tracer number :   33
(PID.TID 0000.0001) PTRACERS_names = /* Tracer short name */
(PID.TID 0000.0001)               'DOC'
(PID.TID 0000.0001)     ;
(PID.TID 0000.0001) PTRACERS_long_names = /* Tracer long name */
(PID.TID 0000.0001)               ''
(PID.TID 0000.0001)     ;
(PID.TID 0000.0001) PTRACERS_ioLabel = /* tracer IO Label */
(PID.TID 0000.0001)               '33'
(PID.TID 0000.0001)     ;
(PID.TID 0000.0001) PTRACERS_advScheme = /* Advection Scheme */
(PID.TID 0000.0001)                      33
(PID.TID 0000.0001)     ;
(PID.TID 0000.0001) PTRACERS_SOM_Advection = /* tracer uses SOM advection scheme */
(PID.TID 0000.0001)                   F
(PID.TID 0000.0001)     ;
(PID.TID 0000.0001) PTRACERS_ImplVertAdv = /* implicit vert. advection flag */
(PID.TID 0000.0001)                   F
(PID.TID 0000.0001)     ;
(PID.TID 0000.0001) PTRACERS_MultiDimAdv = /* tracer uses Multi-Dim advection */
(PID.TID 0000.0001)                   T
(PID.TID 0000.0001)     ;
(PID.TID 0000.0001) PTRACERS_AdamsBashGtr = /* apply AB on tracer tendency */
(PID.TID 0000.0001)                   F
(PID.TID 0000.0001)     ;
(PID.TID 0000.0001) PTRACERS_AdamsBash_Tr = /* apply AB on passive tracer */
(PID.TID 0000.0001)                   F
(PID.TID 0000.0001)     ;
(PID.TID 0000.0001) PTRACERS_diffKh = /* Laplacian Diffusivity */
(PID.TID 0000.0001)                 0.000000000000000E+00
(PID.TID 0000.0001)     ;
(PID.TID 0000.0001) PTRACERS_diffK4 = /* Biharmonic Diffusivity */
(PID.TID 0000.0001)                 0.000000000000000E+00
(PID.TID 0000.0001)     ;
(PID.TID 0000.0001) PTRACERS_diffKrNr = /* Vertical Diffusivity */
(PID.TID 0000.0001)    15 @  1.000000000000000E-05              /* K =  1: 15 */
(PID.TID 0000.0001)     ;
(PID.TID 0000.0001) PTRACERS_useGMRedi = /* apply GM-Redi */
(PID.TID 0000.0001)                   T
(PID.TID 0000.0001)     ;
(PID.TID 0000.0001) PTRACERS_useDWNSLP = /* apply DOWN-SLOPE Flow */
(PID.TID 0000.0001)                   F
(PID.TID 0000.0001)     ;
(PID.TID 0000.0001) PTRACERS_useKPP = /* apply KPP scheme */
(PID.TID 0000.0001)                   F
(PID.TID 0000.0001)     ;
(PID.TID 0000.0001) PTRACERS_ref = /* Reference vertical profile */
(PID.TID 0000.0001)    15 @  0.000000000000000E+00              /* K =  1: 15 */
(PID.TID 0000.0001)     ;
(PID.TID 0000.0001) PTRACERS_EvPrRn =/* tracer conc. in Evap. & Rain */
(PID.TID 0000.0001)                 1.234567000000000E+05
(PID.TID 0000.0001)     ;
(PID.TID 0000.0001)  -----------------------------------
(PID.TID 0000.0001)  tracer number :   34
(PID.TID 0000.0001) PTRACERS_names = /* Tracer short name */
(PID.TID 0000.0001)               'POC'
(PID.TID 0000.0001)     ;
(PID.TID 0000.0001) PTRACERS_long_names = /* Tracer long name */
(PID.TID 0000.0001)               ''
(PID.TID 0000.0001)     ;
(PID.TID 0000.0001) PTRACERS_ioLabel = /* tracer IO Label */
(PID.TID 0000.0001)               '34'
(PID.TID 0000.0001)     ;
(PID.TID 0000.0001) PTRACERS_advScheme = /* Advection Scheme */
(PID.TID 0000.0001)                      33
(PID.TID 0000.0001)     ;
(PID.TID 0000.0001) PTRACERS_SOM_Advection = /* tracer uses SOM advection scheme */
(PID.TID 0000.0001)                   F
(PID.TID 0000.0001)     ;
(PID.TID 0000.0001) PTRACERS_ImplVertAdv = /* implicit vert. advection flag */
(PID.TID 0000.0001)                   F
(PID.TID 0000.0001)     ;
(PID.TID 0000.0001) PTRACERS_MultiDimAdv = /* tracer uses Multi-Dim advection */
(PID.TID 0000.0001)                   T
(PID.TID 0000.0001)     ;
(PID.TID 0000.0001) PTRACERS_AdamsBashGtr = /* apply AB on tracer tendency */
(PID.TID 0000.0001)                   F
(PID.TID 0000.0001)     ;
(PID.TID 0000.0001) PTRACERS_AdamsBash_Tr = /* apply AB on passive tracer */
(PID.TID 0000.0001)                   F
(PID.TID 0000.0001)     ;
(PID.TID 0000.0001) PTRACERS_diffKh = /* Laplacian Diffusivity */
(PID.TID 0000.0001)                 0.000000000000000E+00
(PID.TID 0000.0001)     ;
(PID.TID 0000.0001) PTRACERS_diffK4 = /* Biharmonic Diffusivity */
(PID.TID 0000.0001)                 0.000000000000000E+00
(PID.TID 0000.0001)     ;
(PID.TID 0000.0001) PTRACERS_diffKrNr = /* Vertical Diffusivity */
(PID.TID 0000.0001)    15 @  1.000000000000000E-05              /* K =  1: 15 */
(PID.TID 0000.0001)     ;
(PID.TID 0000.0001) PTRACERS_useGMRedi = /* apply GM-Redi */
(PID.TID 0000.0001)                   T
(PID.TID 0000.0001)     ;
(PID.TID 0000.0001) PTRACERS_useDWNSLP = /* apply DOWN-SLOPE Flow */
(PID.TID 0000.0001)                   F
(PID.TID 0000.0001)     ;
(PID.TID 0000.0001) PTRACERS_useKPP = /* apply KPP scheme */
(PID.TID 0000.0001)                   F
(PID.TID 0000.0001)     ;
(PID.TID 0000.0001) PTRACERS_ref = /* Reference vertical profile */
(PID.TID 0000.0001)    15 @  0.000000000000000E+00              /* K =  1: 15 */
(PID.TID 0000.0001)     ;
(PID.TID 0000.0001) PTRACERS_EvPrRn =/* tracer conc. in Evap. & Rain */
(PID.TID 0000.0001)                 1.234567000000000E+05
(PID.TID 0000.0001)     ;
(PID.TID 0000.0001)  -----------------------------------
(PID.TID 0000.0001)  tracer number :   35
(PID.TID 0000.0001) PTRACERS_names = /* Tracer short name */
(PID.TID 0000.0001)               'PIC'
(PID.TID 0000.0001)     ;
(PID.TID 0000.0001) PTRACERS_long_names = /* Tracer long name */
(PID.TID 0000.0001)               ''
(PID.TID 0000.0001)     ;
(PID.TID 0000.0001) PTRACERS_ioLabel = /* tracer IO Label */
(PID.TID 0000.0001)               '35'
(PID.TID 0000.0001)     ;
(PID.TID 0000.0001) PTRACERS_advScheme = /* Advection Scheme */
(PID.TID 0000.0001)                      33
(PID.TID 0000.0001)     ;
(PID.TID 0000.0001) PTRACERS_SOM_Advection = /* tracer uses SOM advection scheme */
(PID.TID 0000.0001)                   F
(PID.TID 0000.0001)     ;
(PID.TID 0000.0001) PTRACERS_ImplVertAdv = /* implicit vert. advection flag */
(PID.TID 0000.0001)                   F
(PID.TID 0000.0001)     ;
(PID.TID 0000.0001) PTRACERS_MultiDimAdv = /* tracer uses Multi-Dim advection */
(PID.TID 0000.0001)                   T
(PID.TID 0000.0001)     ;
(PID.TID 0000.0001) PTRACERS_AdamsBashGtr = /* apply AB on tracer tendency */
(PID.TID 0000.0001)                   F
(PID.TID 0000.0001)     ;
(PID.TID 0000.0001) PTRACERS_AdamsBash_Tr = /* apply AB on passive tracer */
(PID.TID 0000.0001)                   F
(PID.TID 0000.0001)     ;
(PID.TID 0000.0001) PTRACERS_diffKh = /* Laplacian Diffusivity */
(PID.TID 0000.0001)                 0.000000000000000E+00
(PID.TID 0000.0001)     ;
(PID.TID 0000.0001) PTRACERS_diffK4 = /* Biharmonic Diffusivity */
(PID.TID 0000.0001)                 0.000000000000000E+00
(PID.TID 0000.0001)     ;
(PID.TID 0000.0001) PTRACERS_diffKrNr = /* Vertical Diffusivity */
(PID.TID 0000.0001)    15 @  1.000000000000000E-05              /* K =  1: 15 */
(PID.TID 0000.0001)     ;
(PID.TID 0000.0001) PTRACERS_useGMRedi = /* apply GM-Redi */
(PID.TID 0000.0001)                   T
(PID.TID 0000.0001)     ;
(PID.TID 0000.0001) PTRACERS_useDWNSLP = /* apply DOWN-SLOPE Flow */
(PID.TID 0000.0001)                   F
(PID.TID 0000.0001)     ;
(PID.TID 0000.0001) PTRACERS_useKPP = /* apply KPP scheme */
(PID.TID 0000.0001)                   F
(PID.TID 0000.0001)     ;
(PID.TID 0000.0001) PTRACERS_ref = /* Reference vertical profile */
(PID.TID 0000.0001)    15 @  0.000000000000000E+00              /* K =  1: 15 */
(PID.TID 0000.0001)     ;
(PID.TID 0000.0001) PTRACERS_EvPrRn =/* tracer conc. in Evap. & Rain */
(PID.TID 0000.0001)                 1.234567000000000E+05
(PID.TID 0000.0001)     ;
(PID.TID 0000.0001)  -----------------------------------
(PID.TID 0000.0001)  tracer number :   36
(PID.TID 0000.0001) PTRACERS_names = /* Tracer short name */
(PID.TID 0000.0001)               'ALK'
(PID.TID 0000.0001)     ;
(PID.TID 0000.0001) PTRACERS_long_names = /* Tracer long name */
(PID.TID 0000.0001)               ''
(PID.TID 0000.0001)     ;
(PID.TID 0000.0001) PTRACERS_ioLabel = /* tracer IO Label */
(PID.TID 0000.0001)               '36'
(PID.TID 0000.0001)     ;
(PID.TID 0000.0001) PTRACERS_advScheme = /* Advection Scheme */
(PID.TID 0000.0001)                      33
(PID.TID 0000.0001)     ;
(PID.TID 0000.0001) PTRACERS_SOM_Advection = /* tracer uses SOM advection scheme */
(PID.TID 0000.0001)                   F
(PID.TID 0000.0001)     ;
(PID.TID 0000.0001) PTRACERS_ImplVertAdv = /* implicit vert. advection flag */
(PID.TID 0000.0001)                   F
(PID.TID 0000.0001)     ;
(PID.TID 0000.0001) PTRACERS_MultiDimAdv = /* tracer uses Multi-Dim advection */
(PID.TID 0000.0001)                   T
(PID.TID 0000.0001)     ;
(PID.TID 0000.0001) PTRACERS_AdamsBashGtr = /* apply AB on tracer tendency */
(PID.TID 0000.0001)                   F
(PID.TID 0000.0001)     ;
(PID.TID 0000.0001) PTRACERS_AdamsBash_Tr = /* apply AB on passive tracer */
(PID.TID 0000.0001)                   F
(PID.TID 0000.0001)     ;
(PID.TID 0000.0001) PTRACERS_diffKh = /* Laplacian Diffusivity */
(PID.TID 0000.0001)                 0.000000000000000E+00
(PID.TID 0000.0001)     ;
(PID.TID 0000.0001) PTRACERS_diffK4 = /* Biharmonic Diffusivity */
(PID.TID 0000.0001)                 0.000000000000000E+00
(PID.TID 0000.0001)     ;
(PID.TID 0000.0001) PTRACERS_diffKrNr = /* Vertical Diffusivity */
(PID.TID 0000.0001)    15 @  1.000000000000000E-05              /* K =  1: 15 */
(PID.TID 0000.0001)     ;
(PID.TID 0000.0001) PTRACERS_useGMRedi = /* apply GM-Redi */
(PID.TID 0000.0001)                   T
(PID.TID 0000.0001)     ;
(PID.TID 0000.0001) PTRACERS_useDWNSLP = /* apply DOWN-SLOPE Flow */
(PID.TID 0000.0001)                   F
(PID.TID 0000.0001)     ;
(PID.TID 0000.0001) PTRACERS_useKPP = /* apply KPP scheme */
(PID.TID 0000.0001)                   F
(PID.TID 0000.0001)     ;
(PID.TID 0000.0001) PTRACERS_ref = /* Reference vertical profile */
(PID.TID 0000.0001)    15 @  0.000000000000000E+00              /* K =  1: 15 */
(PID.TID 0000.0001)     ;
(PID.TID 0000.0001) PTRACERS_EvPrRn =/* tracer conc. in Evap. & Rain */
(PID.TID 0000.0001)                 0.000000000000000E+00
(PID.TID 0000.0001)     ;
(PID.TID 0000.0001)  -----------------------------------
(PID.TID 0000.0001)  tracer number :   37
(PID.TID 0000.0001) PTRACERS_names = /* Tracer short name */
(PID.TID 0000.0001)               'O2'
(PID.TID 0000.0001)     ;
(PID.TID 0000.0001) PTRACERS_long_names = /* Tracer long name */
(PID.TID 0000.0001)               ''
(PID.TID 0000.0001)     ;
(PID.TID 0000.0001) PTRACERS_ioLabel = /* tracer IO Label */
(PID.TID 0000.0001)               '37'
(PID.TID 0000.0001)     ;
(PID.TID 0000.0001) PTRACERS_advScheme = /* Advection Scheme */
(PID.TID 0000.0001)                      33
(PID.TID 0000.0001)     ;
(PID.TID 0000.0001) PTRACERS_SOM_Advection = /* tracer uses SOM advection scheme */
(PID.TID 0000.0001)                   F
(PID.TID 0000.0001)     ;
(PID.TID 0000.0001) PTRACERS_ImplVertAdv = /* implicit vert. advection flag */
(PID.TID 0000.0001)                   F
(PID.TID 0000.0001)     ;
(PID.TID 0000.0001) PTRACERS_MultiDimAdv = /* tracer uses Multi-Dim advection */
(PID.TID 0000.0001)                   T
(PID.TID 0000.0001)     ;
(PID.TID 0000.0001) PTRACERS_AdamsBashGtr = /* apply AB on tracer tendency */
(PID.TID 0000.0001)                   F
(PID.TID 0000.0001)     ;
(PID.TID 0000.0001) PTRACERS_AdamsBash_Tr = /* apply AB on passive tracer */
(PID.TID 0000.0001)                   F
(PID.TID 0000.0001)     ;
(PID.TID 0000.0001) PTRACERS_diffKh = /* Laplacian Diffusivity */
(PID.TID 0000.0001)                 0.000000000000000E+00
(PID.TID 0000.0001)     ;
(PID.TID 0000.0001) PTRACERS_diffK4 = /* Biharmonic Diffusivity */
(PID.TID 0000.0001)                 0.000000000000000E+00
(PID.TID 0000.0001)     ;
(PID.TID 0000.0001) PTRACERS_diffKrNr = /* Vertical Diffusivity */
(PID.TID 0000.0001)    15 @  1.000000000000000E-05              /* K =  1: 15 */
(PID.TID 0000.0001)     ;
(PID.TID 0000.0001) PTRACERS_useGMRedi = /* apply GM-Redi */
(PID.TID 0000.0001)                   T
(PID.TID 0000.0001)     ;
(PID.TID 0000.0001) PTRACERS_useDWNSLP = /* apply DOWN-SLOPE Flow */
(PID.TID 0000.0001)                   F
(PID.TID 0000.0001)     ;
(PID.TID 0000.0001) PTRACERS_useKPP = /* apply KPP scheme */
(PID.TID 0000.0001)                   F
(PID.TID 0000.0001)     ;
(PID.TID 0000.0001) PTRACERS_ref = /* Reference vertical profile */
(PID.TID 0000.0001)    15 @  0.000000000000000E+00              /* K =  1: 15 */
(PID.TID 0000.0001)     ;
(PID.TID 0000.0001) PTRACERS_EvPrRn =/* tracer conc. in Evap. & Rain */
(PID.TID 0000.0001)                 1.234567000000000E+05
(PID.TID 0000.0001)     ;
(PID.TID 0000.0001)  -----------------------------------
(PID.TID 0000.0001)  tracer number :   38
(PID.TID 0000.0001) PTRACERS_names = /* Tracer short name */
(PID.TID 0000.0001)               'ZOOC1'
(PID.TID 0000.0001)     ;
(PID.TID 0000.0001) PTRACERS_long_names = /* Tracer long name */
(PID.TID 0000.0001)               ''
(PID.TID 0000.0001)     ;
(PID.TID 0000.0001) PTRACERS_ioLabel = /* tracer IO Label */
(PID.TID 0000.0001)               '38'
(PID.TID 0000.0001)     ;
(PID.TID 0000.0001) PTRACERS_advScheme = /* Advection Scheme */
(PID.TID 0000.0001)                      33
(PID.TID 0000.0001)     ;
(PID.TID 0000.0001) PTRACERS_SOM_Advection = /* tracer uses SOM advection scheme */
(PID.TID 0000.0001)                   F
(PID.TID 0000.0001)     ;
(PID.TID 0000.0001) PTRACERS_ImplVertAdv = /* implicit vert. advection flag */
(PID.TID 0000.0001)                   F
(PID.TID 0000.0001)     ;
(PID.TID 0000.0001) PTRACERS_MultiDimAdv = /* tracer uses Multi-Dim advection */
(PID.TID 0000.0001)                   T
(PID.TID 0000.0001)     ;
(PID.TID 0000.0001) PTRACERS_AdamsBashGtr = /* apply AB on tracer tendency */
(PID.TID 0000.0001)                   F
(PID.TID 0000.0001)     ;
(PID.TID 0000.0001) PTRACERS_AdamsBash_Tr = /* apply AB on passive tracer */
(PID.TID 0000.0001)                   F
(PID.TID 0000.0001)     ;
(PID.TID 0000.0001) PTRACERS_diffKh = /* Laplacian Diffusivity */
(PID.TID 0000.0001)                 0.000000000000000E+00
(PID.TID 0000.0001)     ;
(PID.TID 0000.0001) PTRACERS_diffK4 = /* Biharmonic Diffusivity */
(PID.TID 0000.0001)                 0.000000000000000E+00
(PID.TID 0000.0001)     ;
(PID.TID 0000.0001) PTRACERS_diffKrNr = /* Vertical Diffusivity */
(PID.TID 0000.0001)    15 @  1.000000000000000E-05              /* K =  1: 15 */
(PID.TID 0000.0001)     ;
(PID.TID 0000.0001) PTRACERS_useGMRedi = /* apply GM-Redi */
(PID.TID 0000.0001)                   T
(PID.TID 0000.0001)     ;
(PID.TID 0000.0001) PTRACERS_useDWNSLP = /* apply DOWN-SLOPE Flow */
(PID.TID 0000.0001)                   F
(PID.TID 0000.0001)     ;
(PID.TID 0000.0001) PTRACERS_useKPP = /* apply KPP scheme */
(PID.TID 0000.0001)                   F
(PID.TID 0000.0001)     ;
(PID.TID 0000.0001) PTRACERS_ref = /* Reference vertical profile */
(PID.TID 0000.0001)    15 @  0.000000000000000E+00              /* K =  1: 15 */
(PID.TID 0000.0001)     ;
(PID.TID 0000.0001) PTRACERS_EvPrRn =/* tracer conc. in Evap. & Rain */
(PID.TID 0000.0001)                 1.234567000000000E+05
(PID.TID 0000.0001)     ;
(PID.TID 0000.0001)  -----------------------------------
(PID.TID 0000.0001)  tracer number :   39
(PID.TID 0000.0001) PTRACERS_names = /* Tracer short name */
(PID.TID 0000.0001)               'ZOOC2'
(PID.TID 0000.0001)     ;
(PID.TID 0000.0001) PTRACERS_long_names = /* Tracer long name */
(PID.TID 0000.0001)               ''
(PID.TID 0000.0001)     ;
(PID.TID 0000.0001) PTRACERS_ioLabel = /* tracer IO Label */
(PID.TID 0000.0001)               '39'
(PID.TID 0000.0001)     ;
(PID.TID 0000.0001) PTRACERS_advScheme = /* Advection Scheme */
(PID.TID 0000.0001)                      33
(PID.TID 0000.0001)     ;
(PID.TID 0000.0001) PTRACERS_SOM_Advection = /* tracer uses SOM advection scheme */
(PID.TID 0000.0001)                   F
(PID.TID 0000.0001)     ;
(PID.TID 0000.0001) PTRACERS_ImplVertAdv = /* implicit vert. advection flag */
(PID.TID 0000.0001)                   F
(PID.TID 0000.0001)     ;
(PID.TID 0000.0001) PTRACERS_MultiDimAdv = /* tracer uses Multi-Dim advection */
(PID.TID 0000.0001)                   T
(PID.TID 0000.0001)     ;
(PID.TID 0000.0001) PTRACERS_AdamsBashGtr = /* apply AB on tracer tendency */
(PID.TID 0000.0001)                   F
(PID.TID 0000.0001)     ;
(PID.TID 0000.0001) PTRACERS_AdamsBash_Tr = /* apply AB on passive tracer */
(PID.TID 0000.0001)                   F
(PID.TID 0000.0001)     ;
(PID.TID 0000.0001) PTRACERS_diffKh = /* Laplacian Diffusivity */
(PID.TID 0000.0001)                 0.000000000000000E+00
(PID.TID 0000.0001)     ;
(PID.TID 0000.0001) PTRACERS_diffK4 = /* Biharmonic Diffusivity */
(PID.TID 0000.0001)                 0.000000000000000E+00
(PID.TID 0000.0001)     ;
(PID.TID 0000.0001) PTRACERS_diffKrNr = /* Vertical Diffusivity */
(PID.TID 0000.0001)    15 @  1.000000000000000E-05              /* K =  1: 15 */
(PID.TID 0000.0001)     ;
(PID.TID 0000.0001) PTRACERS_useGMRedi = /* apply GM-Redi */
(PID.TID 0000.0001)                   T
(PID.TID 0000.0001)     ;
(PID.TID 0000.0001) PTRACERS_useDWNSLP = /* apply DOWN-SLOPE Flow */
(PID.TID 0000.0001)                   F
(PID.TID 0000.0001)     ;
(PID.TID 0000.0001) PTRACERS_useKPP = /* apply KPP scheme */
(PID.TID 0000.0001)                   F
(PID.TID 0000.0001)     ;
(PID.TID 0000.0001) PTRACERS_ref = /* Reference vertical profile */
(PID.TID 0000.0001)    15 @  0.000000000000000E+00              /* K =  1: 15 */
(PID.TID 0000.0001)     ;
(PID.TID 0000.0001) PTRACERS_EvPrRn =/* tracer conc. in Evap. & Rain */
(PID.TID 0000.0001)                 1.234567000000000E+05
(PID.TID 0000.0001)     ;
(PID.TID 0000.0001)  -----------------------------------
(PID.TID 0000.0001) GCHEM_CHECK: #define ALLOW_GCHEM
(PID.TID 0000.0001) DARWIN_CHECK: #define ALLOW_DARWIN
(PID.TID 0000.0001) DARWIN_CHECK: iPtr darwin   PTRACERS_names
(PID.TID 0000.0001) DARWIN_CHECK:    1 PO4      PO4
(PID.TID 0000.0001) DARWIN_CHECK:    2 NO3      NO3
(PID.TID 0000.0001) DARWIN_CHECK:    3 FeT      FeT
(PID.TID 0000.0001) DARWIN_CHECK:    4 Si       SiO2
(PID.TID 0000.0001) DARWIN_CHECK:    5 DOP      DOP
(PID.TID 0000.0001) DARWIN_CHECK:    6 DON      DON
(PID.TID 0000.0001) DARWIN_CHECK:    7 DOFe     DOFe
(PID.TID 0000.0001) DARWIN_CHECK:    8 ZooP (1) ZOO1P
(PID.TID 0000.0001) DARWIN_CHECK:    9 ZooN (1) ZOO1N
(PID.TID 0000.0001) DARWIN_CHECK:   10 ZooFe(1) ZOO1Fe
(PID.TID 0000.0001) DARWIN_CHECK:   11 ZooSi(1) ZOO1Si
(PID.TID 0000.0001) DARWIN_CHECK:   12 ZooP (2) ZOO2P
(PID.TID 0000.0001) DARWIN_CHECK:   13 ZooN (2) ZOO2N
(PID.TID 0000.0001) DARWIN_CHECK:   14 ZooFe(2) ZOO2Fe
(PID.TID 0000.0001) DARWIN_CHECK:   15 ZooSi(2) ZOO2Si
(PID.TID 0000.0001) DARWIN_CHECK:   16 POP      POP
(PID.TID 0000.0001) DARWIN_CHECK:   17 PON      PON
(PID.TID 0000.0001) DARWIN_CHECK:   18 POFe     POFe
(PID.TID 0000.0001) DARWIN_CHECK:   19 POSi     POSi
(PID.TID 0000.0001) DARWIN_CHECK:   20 NH4      NH4
(PID.TID 0000.0001) DARWIN_CHECK:   21 NO2      NO2
(PID.TID 0000.0001) DARWIN_CHECK:   22 Phy(1)   Phy01
(PID.TID 0000.0001) DARWIN_CHECK:   26 Phy(   5)Phy05
(PID.TID 0000.0001) DARWIN_CHECK:   27 Chl(1)   Chl01
(PID.TID 0000.0001) DARWIN_CHECK:   31 Chl(   5)Chl05
(PID.TID 0000.0001) DARWIN_CHECK:   32 DIC      DIC
(PID.TID 0000.0001) DARWIN_CHECK:   33 DOC      DOC
(PID.TID 0000.0001) DARWIN_CHECK:   34 POC      POC
(PID.TID 0000.0001) DARWIN_CHECK:   35 PIC      PIC
(PID.TID 0000.0001) DARWIN_CHECK:   36 ALK      ALK
(PID.TID 0000.0001) DARWIN_CHECK:   37 iO2      O2
(PID.TID 0000.0001) DARWIN_CHECK:   38 ZooC (1) ZOOC1
(PID.TID 0000.0001) DARWIN_CHECK:   39 ZooC (2) ZOOC2
(PID.TID 0000.0001) SEAICE_CHECK: #define ALLOW_SEAICE
(PID.TID 0000.0001) SALT_PLUME_CHECK: #define SALT_PLUME
(PID.TID 0000.0001) GAD_CHECK: #define ALLOW_GENERIC_ADVDIFF
(PID.TID 0000.0001) // =======================================================
(PID.TID 0000.0001) // Check Model config. (CONFIG_CHECK):
(PID.TID 0000.0001) // CONFIG_CHECK : Normal End
(PID.TID 0000.0001) // =======================================================
(PID.TID 0000.0001) 
(PID.TID 0000.0001)  MDS_WRITE_FIELD: it,rec,kS,kL,kH=      -1     1   1   1   1 file=XC
(PID.TID 0000.0001)  MDS_WRITE_FIELD: it,rec,kS,kL,kH=      -1     1   1   1   1 file=YC
(PID.TID 0000.0001)  MDS_WRITE_FIELD: it,rec,kS,kL,kH=      -1     1   1   1   1 file=XG
(PID.TID 0000.0001)  MDS_WRITE_FIELD: it,rec,kS,kL,kH=      -1     1   1   1   1 file=YG
(PID.TID 0000.0001)  MDS_WRITE_FIELD: it,rec,kS,kL,kH=      -1     1   1   1   1 file=RAC
(PID.TID 0000.0001)  MDS_WRITE_FIELD: it,rec,kS,kL,kH=      -1     1   1   1   1 file=RAW
(PID.TID 0000.0001)  MDS_WRITE_FIELD: it,rec,kS,kL,kH=      -1     1   1   1   1 file=RAS
(PID.TID 0000.0001)  MDS_WRITE_FIELD: it,rec,kS,kL,kH=      -1     1   1   1   1 file=RAZ
(PID.TID 0000.0001)  MDS_WRITE_FIELD: it,rec,kS,kL,kH=      -1     1   1   1   1 file=DXG
(PID.TID 0000.0001)  MDS_WRITE_FIELD: it,rec,kS,kL,kH=      -1     1   1   1   1 file=DYG
(PID.TID 0000.0001)  MDS_WRITE_FIELD: it,rec,kS,kL,kH=      -1     1   1   1   1 file=DXC
(PID.TID 0000.0001)  MDS_WRITE_FIELD: it,rec,kS,kL,kH=      -1     1   1   1   1 file=DYC
(PID.TID 0000.0001)  MDS_WRITE_FIELD: it,rec,kS,kL,kH=      -1     1   1   1   1 file=Depth
(PID.TID 0000.0001)  MDS_WRITE_FIELD: it,rec,kS,kL,kH=      -1     1   1   1   1 file=rLowC
(PID.TID 0000.0001)  MDS_WRITE_FIELD: it,rec,kS,kL,kH=      -1     1   1   1   1 file=rLowW
(PID.TID 0000.0001)  MDS_WRITE_FIELD: it,rec,kS,kL,kH=      -1     1   1   1   1 file=rLowS
(PID.TID 0000.0001)  MDS_WRITE_FIELD: it,rec,kS,kL,kH=      -1     1   1   1   1 file=rSurfC
(PID.TID 0000.0001)  MDS_WRITE_FIELD: it,rec,kS,kL,kH=      -1     1   1   1   1 file=rSurfW
(PID.TID 0000.0001)  MDS_WRITE_FIELD: it,rec,kS,kL,kH=      -1     1   1   1   1 file=rSurfS
(PID.TID 0000.0001)  MDS_WRITE_FIELD: it,rec,kS,kL,kH=       0     1  15   1  15 file=hFacC
(PID.TID 0000.0001)  MDS_WRITE_FIELD: it,rec,kS,kL,kH=       0     1  15   1  15 file=hFacW
(PID.TID 0000.0001)  MDS_WRITE_FIELD: it,rec,kS,kL,kH=       0     1  15   1  15 file=hFacS
(PID.TID 0000.0001)  MDS_WRITEVEC_LOC: open file: RC.data
(PID.TID 0000.0001)  MDS_WR_REC_RS: iRec,Dim =         1         15
(PID.TID 0000.0001)  MDS_WRITEVEC_LOC: open file: RF.data
(PID.TID 0000.0001)  MDS_WR_REC_RS: iRec,Dim =         1         16
(PID.TID 0000.0001)  MDS_WRITEVEC_LOC: open file: DRC.data
(PID.TID 0000.0001)  MDS_WR_REC_RS: iRec,Dim =         1         16
(PID.TID 0000.0001)  MDS_WRITEVEC_LOC: open file: DRF.data
(PID.TID 0000.0001)  MDS_WR_REC_RS: iRec,Dim =         1         15
(PID.TID 0000.0001)  MDS_WRITEVEC_LOC: open file: PHrefF.data
(PID.TID 0000.0001)  MDS_WR_REC_RS: iRec,Dim =         1         16
(PID.TID 0000.0001)  MDS_WRITEVEC_LOC: open file: PHrefC.data
(PID.TID 0000.0001)  MDS_WR_REC_RS: iRec,Dim =         1         15
(PID.TID 0000.0001)  MDS_READ_FIELD: opening global file: Uvel.0005184000
(PID.TID 0000.0001)  MDS_READ_FIELD: opening global file: Vvel.0005184000
(PID.TID 0000.0001)  MDS_READ_FIELD: opening global file: Theta.0005184000
(PID.TID 0000.0001) // =======================================================
(PID.TID 0000.0001) // Field Initial Temperature at iteration          1
(PID.TID 0000.0001) // CMIN =         -1.944865107536316E+00
(PID.TID 0000.0001) // CMAX =          3.024649810791016E+01
(PID.TID 0000.0001) // CINT =          1.192272711683203E+00
(PID.TID 0000.0001) // SYMBOLS (CMIN->CMAX): -abcdefghijklmnopqrstuvwxyz+
(PID.TID 0000.0001) //                  0.0: .
(PID.TID 0000.0001) // RANGE I (Lo:Hi:Step):(     1:   128:     1)
(PID.TID 0000.0001) // RANGE J (Lo:Hi:Step):(    64:     1:    -1)
(PID.TID 0000.0001) // RANGE K (Lo:Hi:Step):(   1:   1:   1)
(PID.TID 0000.0001) // =======================================================
(PID.TID 0000.0001) K =   1
(PID.TID 0000.0001)                I=10      I=20      I=30      I=40      I=50      I=60      I=70      I=80      I=90      I=100     I=110     I=120
(PID.TID 0000.0001) |--J--|123456789|123456789|123456789|123456789|123456789|123456789|123456789|123456789|123456789|123456789|123456789|123456789|12345678
(PID.TID 0000.0001)     64 ................................................................................................................................
(PID.TID 0000.0001)     63 ................................................................................................................................
(PID.TID 0000.0001)     62 ................................................................................................................................
(PID.TID 0000.0001)     61 ------...-----------.......................................................................................................-----
(PID.TID 0000.0001)     60 ----.....-----------.................................................................................-....................------
(PID.TID 0000.0001)     59 abbcccbaaaaaa----aa.................................................................................ba---aa..............-------
(PID.TID 0000.0001)     58 cddddddddccbbbbbbb.....................................................................................--aab............-aaa-aab
(PID.TID 0000.0001)     57 eeeee....................................................................................................baa............bbbbabcd
(PID.TID 0000.0001)     56 ggff......................................................................................................--........ddeee..ccdef
(PID.TID 0000.0001)     55 hh..............................................................aa.......................................a---.....fgghhhihgfghhh
(PID.TID 0000.0001)     54 h............................................................ccbbbcc......................................a--bb..efghhiiijjijjii
(PID.TID 0000.0001)     53 hh.................................................bbbc...cccccccdddd.....ghhii...........................-aabcddegghhiijjjjj...
(PID.TID 0000.0001)     52 ii................................................cbbcc...ccdddddeeee.ffgggghhij............................abcddegghijjjjkk....
(PID.TID 0000.0001)     51 ...................................................bbcc..cdddddeeeeeffffgggghhijjk..........................abcgggfghijjjkkk....
(PID.TID 0000.0001)     50 ...................................................bbcccccddeeeefffffffggghhhhijjkl..........................bciiiiijkkllkklll..
(PID.TID 0000.0001)     49 ...................................................cccccddeeeffggggggghhhiiijjjjkklm..........................eekkkklllmmlllmll.
(PID.TID 0000.0001)     48 ....................................................hhfdeeffgghhhiiihiiijjkkkkllllmm.....................ggggghklmmmnnnnmmmmmmm.
(PID.TID 0000.0001)     47 ...................................................jlmlkjjjjjjjjjjkkjjkklllmmmmmmmmm...................jmmllmknoooooooonnnnnm...
(PID.TID 0000.0001)     46 ..................................................knooonnmmmmmmmmlllllmmnnnnoooononm..................noopppppqqqqpppooooooon...
(PID.TID 0000.0001)     45 ..................................................oqqqqppoooooonnnnnnnoooppppppppponm................qssstsssrrrrqqqqqppppppo...
(PID.TID 0000.0001)     44 .............................................o.qrprssrrqqqpppppppppppqqqqrrrrqqqqpponn..............suutttssssrrrrrrrrrqqqqp....
(PID.TID 0000.0001)     43 ............................................psssttutsrrrrrssssssrrsssssssssssrrqqqqppop............tuuutttstttttttttsssrrrqq....
(PID.TID 0000.0001)     42 ...........................................rsuuuvutttttuuuuuuuutttutttttttttsssrrqqqqqp............uvvuuuuuuuuuuuuuuttttssr.....
(PID.TID 0000.0001)     41 .....................vw.....................uvuuvvvvvwwwwvvvvvvuuvvuuuuuuutttsssrrrrrrrsuv.......vvvvvvvvvvvvvvvvvvuuuuttr......
(PID.TID 0000.0001)     40 .....................vww.................uuvvvvwwwwwxxxxwwwvvvvvvvvvvvvvuuuuutttsssssstuvv.......xxx.wwvvvwwwwwwvvvvvuutsr......
(PID.TID 0000.0001)     39 ....................vwwww.....xxx.......vvvvwwwwxxxxxxxxwwwwwwwwwwwvvvvvvvvvvuuuutttuuvvwwx......xxxxx.wwwwwwwwwwwvvvvuuts......
(PID.TID 0000.0001)     38 ...................wwwxxxx...xxxxx.....wwww.xxxxxxxxxxxxwwwwwwwwwwwwwwwwwwvvvvvvvuuvvvwwxxxyxw.....xxwwwwwwwwwwwwwwwvvvuut......
(PID.TID 0000.0001)     37 ................wwwxwxxyyy..yyxxxxx....wwxx.yyyyyyxxxxxxwwwwwwxxxxwwwwwwwwwwwvvvvvvvvwxxxxxxxwvw...yxwwvvvwxxxxxxwwwwwvvuu......
(PID.TID 0000.0001)     36 ..................wxxxyyyyy.yyxxxxx....xxx...yyyyyyyxxxxxxwwxxxxxxxxxxxxxxxxwwwwwwwwwxxxxxxwwvvuuv.yy......xxxxxxxxxwxwwwv......
(PID.TID 0000.0001)     35 ..................wwwxxyyyyxyxxxxxx....yy....zyzzzzyyyxxxxxxxxxyyyxxxxxxxxxxxxxxxxxxxxyxxxxwwwvvvvw.........xxxxxxxxxxyxxxxx....
(PID.TID 0000.0001)     34 wwx..............xxxxxyyyyyyxxyyyy........zzzzzzzzzzzzyyyyyyyyyyyyyyyyxxxxxxxxxxxxxxxxxxxxwwwwwwwwwv..........xxxxxxxyyyyyyxwvvw
(PID.TID 0000.0001)     33 www.............yyyyyyzzzzzzzzzzzz.........zzz+++++++zzzzzzyyyyyyyxxxxxxwwwwwwwwvvvvvvvvvvvvvvvvvvvv...........yxxxxxxxxxxxxwwww
(PID.TID 0000.0001)     32 wwv............yxxxyyyyzzzz+++++++z.........zz..z++++++zzzzzzyyyyyyyyyxxxxxwwwwwwvvvuvvvvvvuuuuuuvu..............xxxwwwwwwwwvvww
(PID.TID 0000.0001)     31 vvuu..........yyyyyyyzzzzzzzz++++++z........zzz.....+.+++++++zzzzzzzzzzyyyyyyxxxxxwwwwwwwwvvvuuuuuu................yxxwxwwwvvvvv
(PID.TID 0000.0001)     30 uuut..........yzzzzzzzzzzzzzzzz+++zzzy...zzyzzyyx....z+.z+++++zzzz+zzzzzzzzzzyyyyyyxxxxxwwwvvvvvvuu................yxxxxwwwvvvvv
(PID.TID 0000.0001)     29 uuutt.........yyyyyzzzzyyxxyyyzzzzzyyyyyzzzzzzyxyy.y..zzzzzzzzzzzzzzzzzzzzzzzzyyyyyyyxxwwwvvuuuuutts...............xxxxwwwvvvuuu
(PID.TID 0000.0001)     28 ttttt.........yzz.yyzyyxxxxxyyyyyyyxyyzzz++zzz.....yyyyyzzzzzzzzzyyyyyyyyyzzzyyyyyyxxxwwvvuuutttsssr..............xxxxwwwvvuuutt
(PID.TID 0000.0001)     27 stts..........zz..xyyyxxxwxxxxxyxxxwxxyyzzzz........yyyyyyyyyyyyyyyyyyyyyyyyyyxxxxxxxwwvvuuutttssssrq.............wxxwwvvvuuutts
(PID.TID 0000.0001)     26 sssr..........yy..xxxxxwwwwxxwwwwwwvwwwxxyy..........xyyxxxxxxxxxxxxxxxxxxxxxxxxxxxxwwwvvuuuutttsssrrq............xxxwwvvvuuutts
(PID.TID 0000.0001)     25 ssrq.........xxy.wxxwwwwvvvwwvvvvvvuuuuvw.............xxwwwwwwwwwwwwwwwwwwwwwwwwwwwwwwvvvvvvuuttssrrrqq...........xxxwwvvvuuutts
(PID.TID 0000.0001)     24 ssrqo.......wwww.wwwwvvvvvvvvuuuuuuutttt..............vwvvvvvvvvvvvvvuuuuvvvvvvvvvvvvvvvvvvuuuttssrrqqp..........uwwwwvvvuuuutts
(PID.TID 0000.0001)     23 srrpn.......vvvvvvwvuuuuuuuuutttttttssss..............vwvuuuuuuuuuuuttttttuuuuuuuuuvvvvvvvuuuuttssrrqpn........uuvwvvuuuuuuuttss
(PID.TID 0000.0001)     22 rrqqpn.....uvuuuuvutttttttssssrrrrrrrrrss.............uvutttttttttsssssstsssttttttttuuuuuutttttssrrqpon........uvvuutttttsttssss
(PID.TID 0000.0001)     21 qqqppn.....tuttttttssssrrrrrqqqqqqqqqqrrr....qp.......tttssrrrstssrrrqrrrrrrrrrrrrrrssssssssssrrrqqppnm.......suuttsssssrrsssrrr
(PID.TID 0000.0001)     20 ppooppp.qrrtutssssrrrrrrqqqqpppooooooopqrqqqpppp......rrrrqqq.rrrrqqqppppppppppppppqqqqqrrrqqqqqppppom.......qstssrrrrqqqqqrqqqq
(PID.TID 0000.0001)     19 nnmmnopppppstssssrrrqqqqqqpppoonnnnnmmnoppoooooooo...pppppppp..rrqqqppooooooooooooooooopppppppoooooonl......moqrrqqpppppoopppooo
(PID.TID 0000.0001)     18 llkkllmmmmlmnnnoooonnnnoooppoonnmmmlllllmmnnmmmmnnn..oonnnooo..ppppppooonnnnnnnnnnnnnnnnnnnnnnnnmmmmml......kmnnnnmmmnnnmmnnnnmm
(PID.TID 0000.0001)     17 jjjjjjiiiiiiiiiijjjiijjjkllmnnmmllkkkkkkkklllllllmmnnnmmmmnn..mmnmnnnnnnmmmmmmmmmmmlllmmmmlllllllllllk...lkkjkkllkkkkkkkkkklkkkj
(PID.TID 0000.0001)     16 hhhhhggggggghggggggggghhhhijjkkkkjjjjjjjjjjjkkkkkklmmlllllm..lllkkkllmmmllllllllkkkkkkkkkkkkkkkkjklkk....kjiiiijjiiiiiiiiiiihhhh
(PID.TID 0000.0001)     15 eefffeeeeeefffeeeeffffgg.ffghhiiiiiiiihhhiiiiijjjjjjjjkkkkkkkjjjjjjkkkkkkkkkkjjjjjjjjjjjjjjjjjjiijjjk....jjihhggggffgggggggffeee
(PID.TID 0000.0001)     14 cdddddddddddedddddeeeeffffeddeffggggggggggghhhhhhggghhhiiijjiihhhhiijjjiiiiiihhhhhhhhiiiiiiiiiiihhhijj..ijjiggfeedddeeeeeeeedddc
(PID.TID 0000.0001)     13 bbccccccccccdddccdddddeeeeddcccddeeeeeefffffgggfffffffgggghhhgggggghhhhhgggffffffffggggghhhhhhhhhhhhhiiiiiihgfeedcccddddcccccbbb
(PID.TID 0000.0001)     12 bbbbbbbbbbbcccccccccccccccccbbccccdddddddeeefffeeeeeeeeeeeffffffefffffffeeeddddeeeeeeeeeeffffggffggggggggfffeeddccbbcccbbbbbbbbb
(PID.TID 0000.0001)     11 bbbaaaabbbbbbbbbbbbbbbbbcccbbbbbbccccccddddddddddddccccccddddddddddddddddccccccccccdddddddddeeeeeeeeeeedddccccccbbbbbbbbbbbbbbbb
(PID.TID 0000.0001)     10 bbbbbbbbaabbbbbbbbbaabbbbbbbbbbbbbbaabbbccccccccccbbbbbbbccccccccccccccccbbbbbbbbbbbcccbbbbccccbccccccbbbb..bccbbbbbaabbaaabbbbb
(PID.TID 0000.0001)      9 bbbbbbbbaaaabbbaaa..aaabbbbbaaaaa........bbbaa...aaaaaaabbbbbbbbbbbbbbbbbbbaaaaaaaaaaaaaaaaaaaaaabbbbbaa...aabbbbbbbbbbbaabbbbbb
(PID.TID 0000.0001)      8 bbbaaaaaaaa..............aa.............................aa--aaaabbbaaabbaaaaaaaaaaaaaaaaaaaa---aaabaaa....a-abbbbbbbbbbbaabbbbbb
(PID.TID 0000.0001)      7 .............................................................aaaaaaaaaaaaaaaaaa-------aaaaa----aaaaaa......-aabbbbaaaaaaaaaa....
(PID.TID 0000.0001)      6 ...........................................................--abbbaa--------------.........................---aabbbaa----........
(PID.TID 0000.0001)      5 ............................................................abbccbba-----.................................aaaa..aa--............
(PID.TID 0000.0001)      4 ................................................................................................................................
(PID.TID 0000.0001)      3 ................................................................................................................................
(PID.TID 0000.0001)      2 ................................................................................................................................
(PID.TID 0000.0001)      1 ................................................................................................................................
(PID.TID 0000.0001) // =======================================================
(PID.TID 0000.0001) // END OF FIELD                                          =
(PID.TID 0000.0001) // =======================================================
(PID.TID 0000.0001) 
(PID.TID 0000.0001)  MDS_READ_FIELD: opening global file: Salt.0005184000
(PID.TID 0000.0001) // =======================================================
(PID.TID 0000.0001) // Field Initial Salinity at iteration          1
(PID.TID 0000.0001) // CMIN =          3.148459053039551E+01
(PID.TID 0000.0001) // CMAX =          3.755685424804688E+01
(PID.TID 0000.0001) // CINT =          2.248986562093099E-01
(PID.TID 0000.0001) // SYMBOLS (CMIN->CMAX): -abcdefghijklmnopqrstuvwxyz+
(PID.TID 0000.0001) //                  0.0: .
(PID.TID 0000.0001) // RANGE I (Lo:Hi:Step):(     1:   128:     1)
(PID.TID 0000.0001) // RANGE J (Lo:Hi:Step):(    64:     1:    -1)
(PID.TID 0000.0001) // RANGE K (Lo:Hi:Step):(   1:   1:   1)
(PID.TID 0000.0001) // =======================================================
(PID.TID 0000.0001) K =   1
(PID.TID 0000.0001)                I=10      I=20      I=30      I=40      I=50      I=60      I=70      I=80      I=90      I=100     I=110     I=120
(PID.TID 0000.0001) |--J--|123456789|123456789|123456789|123456789|123456789|123456789|123456789|123456789|123456789|123456789|123456789|123456789|12345678
(PID.TID 0000.0001)     64 ................................................................................................................................
(PID.TID 0000.0001)     63 ................................................................................................................................
(PID.TID 0000.0001)     62 ................................................................................................................................
(PID.TID 0000.0001)     61 kllmmm...jjjjjjjjjjj.......................................................................................................dfgij
(PID.TID 0000.0001)     60 mnnn.....lllllllllll.................................................................................f....................cegikl
(PID.TID 0000.0001)     59 ooooooonnnnnnnnnnnm.................................................................................fffgggg..............fgijlmn
(PID.TID 0000.0001)     58 ppppooonoooooonnnn.....................................................................................eeffg............hijlmnoo
(PID.TID 0000.0001)     57 pppon....................................................................................................dfg............kllmnoop
(PID.TID 0000.0001)     56 ppom......................................................................................................eh........kmnnn..ooppp
(PID.TID 0000.0001)     55 po..............................................................cc.......................................fgij.....oooqqqqppppqqq
(PID.TID 0000.0001)     54 p............................................................ffedcb-......................................ijkji..mopqqqqrrrqqqqq
(PID.TID 0000.0001)     53 on.................................................eeff...fffggggfeca.....bcccb...........................hikmmmmnppqqqqrrrrq...
(PID.TID 0000.0001)     52 on................................................cdeff...ffgggggggfd.acdddeeedc............................ikmnnnpppqqqqrrq....
(PID.TID 0000.0001)     51 ...................................................bdef..ffgggggggffeddeeeeeeeedcb..........................eikoppoopppqqqqq....
(PID.TID 0000.0001)     50 ...................................................cdfffffggffffffffeeeeeeeeeeeddcb..........................fhopppqqrrrrrrrqq..
(PID.TID 0000.0001)     49 ...................................................defffffggffggggffffffffeeeeeeddcb..........................hiqrrrsssssssrrrr.
(PID.TID 0000.0001)     48 ....................................................kkiggggghhhhhhhhhgggggffffffeddd.....................ffikjkqrsttttttsssssrr.
(PID.TID 0000.0001)     47 ...................................................mmmmllllkkkjjjjjjjjiiiihhhhhgfeee...................noqqqrostuuuuuutttttss...
(PID.TID 0000.0001)     46 ..................................................mnnnnnnnmmmmmmllkkkkkkkkjjjjjihffg..................tuuvvvvvvwwwvvuuuuuuuut...
(PID.TID 0000.0001)     45 ..................................................nnnoonnnnnnnnmmmmmmmmmmmmmmllkihggh................uvvwwwwwwwwwwvvvvvvvvvvv...
(PID.TID 0000.0001)     44 .............................................j.nnnnnoooonnnnnnnnnnnnooooooppponmljhhhi..............vwwwwwwwwwwvvvwwwwwxwwww....
(PID.TID 0000.0001)     43 ............................................jmnnooooooooooooppppppppppqqqqqqqqponljiiij............vvvwwwwwwxxxxxxxyyyyyyxww....
(PID.TID 0000.0001)     42 ...........................................kmnoooooooopppppqqqqqqqqqqqqqqqqrrqqpomlkjjj............vvvvwwxxxxyyzzzzzzzzzyxw.....
(PID.TID 0000.0001)     41 .....................wv.....................mnonooooppppqqqqqqqqqqqqqqqqqqqqqppponmllkklno.......vuuvvvuvwwwxyz+++++zzyyxw......
(PID.TID 0000.0001)     40 .....................uvv.................jkmmnnnoooooooppppqqpppppppppppppooooooonnnmmlmmn.......uuu.vussttuvxyzzzzyyyxxwv......
(PID.TID 0000.0001)     39 ....................ttuvu.....fff.......jjjmmmnnnnooooooooooooooooooooooonnnnnnnnnmnnmmmmmm......uuutt.rqrrsuwxxxxxxxwwvut......
(PID.TID 0000.0001)     38 ...................tstuvus...ghgeb.....jiii.lmmmmnnnnnnnnnnnnnnnnnnnnnnnmmmmmmmllllllllkllllkl.....tssrqqrsstuvvwwvvvvutss......
(PID.TID 0000.0001)     37 ................vussstuvus..ijjhecc....iiii.llmmmmmmmmmmmmmmmmmmnmmmmmmmlllllllllkkkkjjjjkkkkkkk...tttttsssrrsstttttuttsrq......
(PID.TID 0000.0001)     36 ..................rssuuutqo.jkjhfee....hhh...lllllllllllllllmmmmmmmmmmlllllllllllkkjjjjjjjjjkkllkk.pr......qqrrsrrssssssrq......
(PID.TID 0000.0001)     35 ..................rrstttrpnmlmkihgf....gg....kllllkllllllklllmmmmmmmmmmmmmmmmmmmmlkkkkkjjjjjjkkkkig.........qrstssssrrrrqqpm....
(PID.TID 0000.0001)     34 pni..............rrrstttsqponnmkji........kklllllllllllllllmmnnnnnnnnnnnnnnnnnnmmmlllllkkkjjjjjjjigf..........rttstsrrrqqppopppp
(PID.TID 0000.0001)     33 qol.............qqqrrssssrrqppomlj.........klllllllmmmllllmnnoooppppppppooooonnnnmmmmmmmllllkkkkjihg...........rttuttsssssrrrrqq
(PID.TID 0000.0001)     32 qpn............qqqqqrrrrrqqqpponmkj.........ll..lllmmmmmmmnnoopqqqqqqqqqqqqpppooooonnnnnnnnmmmmmlkj..............tuuutttssssssrr
(PID.TID 0000.0001)     31 rqpo..........qqqqqqqrrrqqppoooomkjk........llm.....l.nnmmnnopqqrrrrrrrrrrrrqqqppppppppooooonoonnmm................ttttttttsssss
(PID.TID 0000.0001)     30 srqp..........qqqppppqqpppoooonnmkkllk...kllllmml....mn.nmmnoppqqqrrrrrrrrrrrrrrqqqqqqqqqqqpppppppo................vuuuuttttttts
(PID.TID 0000.0001)     29 tssrr.........pppppppppoooonnnmmllllmmmmmlmmmmmmmn.o..oonnnnoppoppqqqrrrrrrrsssssrrrrrrrrrqqqqrrqqqp...............wvvuuuuuuuuut
(PID.TID 0000.0001)     28 uttss.........ppp.popoooooonnmmllmmmmmmmmmnnno.....pppoonnnoopppppqrrrrssssstttttttsssssssrssssrrqpp..............yxxwvvvvvvvvvu
(PID.TID 0000.0001)     27 ttss..........pp..pppoooooonnnmmmmnnnnnnnnno........ppooooooopppqqrrrssssstttuuuuuuuuttttttttssrrqpoo.............yyyyxxxxwwwvvu
(PID.TID 0000.0001)     26 tssr..........pp..pppoooooooonnnnnooooooopp..........ppppppppppqqrrrrssssttttuuuuuuuvvvuuutttssrrqqpoo............yyzyyyyxxwvvuu
(PID.TID 0000.0001)     25 ssrq.........qqq.pppppppppppppppppppppppq.............ppqqqqqqqqqrrrrrsssstsstttuuuuvvvvuuuutssrrqpoooo...........yyyyyxxxwvvuut
(PID.TID 0000.0001)     24 srqpp.......qqqq.ppqqqqqqqqqqqqqqqrrrrrq..............qqrrrrrqqrrrrrrrrrssssrrssstuuuvuuutuutsrrqpoonnn..........wyxwwwwwwvvvuut
(PID.TID 0000.0001)     23 ssrqo.......qqqqppqrrrrrsssssssssssssssr..............qqrrrrrrrrrrrrrrrrrrrrrrrrrsstttttttttsrrqpponmmm........uvwxvuuuvvvuuuttt
(PID.TID 0000.0001)     22 ssrrqo.....qqqqqqqrssssssstsssssssttttsss.............rrrrrrrssssrrrrrrrrrrrrqqqqqrrrrrrrrrqqqpooonmllm........uwwvuttttttttssss
(PID.TID 0000.0001)     21 rrrrqp.....qrrrrrrrsrrrssssrrrrrrrrssssss....tt.......rrrrrrrrssrrrrrrqqqqqqqqqqppppqqpppooooonnmmmllll.......svvuttsssssrrrrssr
(PID.TID 0000.0001)     20 qqpqqqq.qrqqrrrrrrrrrrrrrrrrrqqqpppqqrssssssrrrr......rrrrrrr.rrrrrqqqqqqqppppppoooooonnnnmmmmmllllkkk.......osuuttssssrrrqqqqqq
(PID.TID 0000.0001)     19 ooooopqqqqrrrrrrrrrrqqqrrrrrqqqpppooopqqrqqqqppqqq...rqqqqqqq..rrrrqqqppppoonnnnnmmmmmmmmlllkkklkkkkjj......knqsssrrrrqqqqqpppoo
(PID.TID 0000.0001)     18 nmmmnnopppppppoooooooooppqrrqqppooooooooooooooooppq..ppppppqp..qqqqqqqppooonnnmmmmllllllllkkkkkkkkkjji......lmnooooooooooooooonn
(PID.TID 0000.0001)     17 mlllllmmmmmmllkkkkkkkklllmnopppoononnnnnnnnnnnnnnooooooooopo..nnnnopppooonnnnnmmmmmlllllllllkkkkkkkjig...ijkklmmmmmmmmmmmmmmmmmm
(PID.TID 0000.0001)     16 kkkkkkkkkkkkkkkkkjjjjkkkkklmmnnnnnnnnmmmmmmmmmmmmmmnnnnnnnn..mmmmmmnnnnnnmnnnmmmmmmmmmllllllllllkkkji....ijklllllllllllkkkkkkkkk
(PID.TID 0000.0001)     15 kkkkkkkkkkkkkkkkkkjjkkkj.kkklmmmmmmmmmmllllllllllllllmmmmmnmmmllllmmmmmmmmmmmmmllmmmmllllllllllllkkkj....ijkkklkkkkkkkkkkkkkkkkk
(PID.TID 0000.0001)     14 kkkkkkkkkkkkkkkkkkkkkkkkjjjkkkllllllllllllllllllllllllllllmmmllllllllllllllllllllllllllllllllllllllllh..hijkkkkkkkkkkkkkkkkkkkkk
(PID.TID 0000.0001)     13 kklllllkkkkkjjkkkkkkkkkkkkkkkkkkllllllllllllllkkkkkkkkkkkkllllllkkkkkkkkkkkkkkkkkllllllllllllllllllllkjjjkkkkkkkkkkkkkkkkkkkkjkk
(PID.TID 0000.0001)     12 lllllkkkkkjjjjjkkjjkkjjjkkkkkkkkkklllllllllkkkkkkkkkkkkkkkkkkkkkkjjjjjkkkkkkkkkkkkkkkkkkkllllllllllllllllkkkkkkkkkkkkkkkkkkkkkkl
(PID.TID 0000.0001)     11 llllkkkkkkjjjkkkkkkkkkkkkjkkkkkkkkkkkkkkkkkkkkkkkkkkkkkkkkkkkkkkkkjjjkkkkllllkkkkkkkkkkkkkkkkkkkkkkkkkkkkkkkklllllllllkkkkklllll
(PID.TID 0000.0001)     10 mllllkkkkkkkkkkkkkkkkkkkkkkkkkkkkkkkkkkkkllllkkkkkkkkkkkllllllllkkkkkkkklkkkkkkkkkkkkkkkkkkkkkkkjkkkkkkjjj..mmllllllllllllllmmmm
(PID.TID 0000.0001)      9 lllllllkkkkkkkkkkk..kkkkkkkkkkkkk........kkkkk...kkkkkkllllllllllllllkkkkkkkkkkkkkkkjjjjjjjjjjjjjjjjjjjj...lmmllllmmllllllllmmmm
(PID.TID 0000.0001)      8 llllkkkkkkk..............kk.............................mlllllllllllllkkkjjjjjjjjjjjjjjjjjjjjjjijjjjjj....klmmllllllllllllllllll
(PID.TID 0000.0001)      7 .............................................................lllllkkkkkkkkjjjjjjjjkkkkkjjjjiiiiiiijjj......mmlllllllllllllll....
(PID.TID 0000.0001)      6 ...........................................................mmmlllllkkkkkkkkkkkkkk.........................lmmmmmmmllllll........
(PID.TID 0000.0001)      5 ............................................................mmmllllllllll.................................lmmm..llll............
(PID.TID 0000.0001)      4 ................................................................................................................................
(PID.TID 0000.0001)      3 ................................................................................................................................
(PID.TID 0000.0001)      2 ................................................................................................................................
(PID.TID 0000.0001)      1 ................................................................................................................................
(PID.TID 0000.0001) // =======================================================
(PID.TID 0000.0001) // END OF FIELD                                          =
(PID.TID 0000.0001) // =======================================================
(PID.TID 0000.0001) 
(PID.TID 0000.0001)  MDS_READ_FIELD: opening global file: Eta.0005184000
(PID.TID 0000.0001) Start initial hydrostatic pressure computation
(PID.TID 0000.0001) Pressure is predetermined for buoyancyRelation OCEANIC
(PID.TID 0000.0001) 
(PID.TID 0000.0001)  write diagnostics summary to file ioUnit:      6
Iter.Nb:         0 ; Time(s):  0.0000000000000E+00
------------------------------------------------------------------------
2D/3D diagnostics: Number of lists:    74
------------------------------------------------------------------------
listId=    1 ; file name: ETAN
 nFlds, nActive,       freq     &     phase        , nLev               
    1  |    1  |  -2635200.000000         0.000000 |   1
 levels:   1
 diag# | name   |   ipt  |  iMate | kLev|   count |   mate.C|           
    23 |ETAN    |      1 |      0 |   1 |       0 |
------------------------------------------------------------------------
listId=    2 ; file name: SALTanom
 nFlds, nActive,       freq     &     phase        , nLev               
    1  |    1  |   2635200.000000         0.000000 |  15
 levels:   1   2   3   4   5   6   7   8   9  10  11  12  13  14  15
 diag# | name   |   ipt  |  iMate | kLev|   count |   mate.C|           
    29 |SALTanom|      2 |      0 |  15 |       0 |
------------------------------------------------------------------------
listId=    3 ; file name: THETA
 nFlds, nActive,       freq     &     phase        , nLev               
    1  |    1  |   2635200.000000         0.000000 |  15
 levels:   1   2   3   4   5   6   7   8   9  10  11  12  13  14  15
 diag# | name   |   ipt  |  iMate | kLev|   count |   mate.C|           
    26 |THETA   |     17 |      0 |  15 |       0 |
------------------------------------------------------------------------
listId=    4 ; file name: DIC
 nFlds, nActive,       freq     &     phase        , nLev               
    1  |    1  |   2635200.000000         0.000000 |  15
 levels:   1   2   3   4   5   6   7   8   9  10  11  12  13  14  15
 diag# | name   |   ipt  |  iMate | kLev|   count |   mate.C|           
   632 |TRAC32  |     32 |      0 |  15 |       0 |
------------------------------------------------------------------------
listId=    5 ; file name: DICTFLX
 nFlds, nActive,       freq     &     phase        , nLev               
    1  |    1  |     86400.000000         0.000000 |   1
 levels:   1
 diag# | name   |   ipt  |  iMate | kLev|   count |   mate.C|           
   756 |DICTFLX |     47 |      0 |   1 |       0 |
------------------------------------------------------------------------
listId=    6 ; file name: DICOFLX
 nFlds, nActive,       freq     &     phase        , nLev               
    1  |    1  |     86400.000000         0.000000 |   1
 levels:   1
 diag# | name   |   ipt  |  iMate | kLev|   count |   mate.C|           
   757 |DICOFLX |     48 |      0 |   1 |       0 |
------------------------------------------------------------------------
listId=    7 ; file name: DICCFLX
 nFlds, nActive,       freq     &     phase        , nLev               
    1  |    1  |     86400.000000         0.000000 |   1
 levels:   1
 diag# | name   |   ipt  |  iMate | kLev|   count |   mate.C|           
   758 |DICCFLX |     49 |      0 |   1 |       0 |
------------------------------------------------------------------------
listId=    8 ; file name: DICPCO2
 nFlds, nActive,       freq     &     phase        , nLev               
    1  |    1  |     86400.000000         0.000000 |   1
 levels:   1
 diag# | name   |   ipt  |  iMate | kLev|   count |   mate.C|           
   760 |DICPCO2 |     50 |      0 |   1 |       0 |
------------------------------------------------------------------------
listId=    9 ; file name: DICPHAV
 nFlds, nActive,       freq     &     phase        , nLev               
    1  |    1  |     86400.000000         0.000000 |   1
 levels:   1
 diag# | name   |   ipt  |  iMate | kLev|   count |   mate.C|           
   761 |DICPHAV |     51 |      0 |   1 |       0 |
------------------------------------------------------------------------
listId=   10 ; file name: PO4
 nFlds, nActive,       freq     &     phase        , nLev               
    1  |    1  |   2635200.000000         0.000000 |  15
 levels:   1   2   3   4   5   6   7   8   9  10  11  12  13  14  15
 diag# | name   |   ipt  |  iMate | kLev|   count |   mate.C|           
   229 |TRAC01  |     52 |      0 |  15 |       0 |
------------------------------------------------------------------------
listId=   11 ; file name: NO3
 nFlds, nActive,       freq     &     phase        , nLev               
    1  |    1  |   2635200.000000         0.000000 |  15
 levels:   1   2   3   4   5   6   7   8   9  10  11  12  13  14  15
 diag# | name   |   ipt  |  iMate | kLev|   count |   mate.C|           
   242 |TRAC02  |     67 |      0 |  15 |       0 |
------------------------------------------------------------------------
listId=   12 ; file name: FeT
 nFlds, nActive,       freq     &     phase        , nLev               
    1  |    1  |   2635200.000000         0.000000 |  15
 levels:   1   2   3   4   5   6   7   8   9  10  11  12  13  14  15
 diag# | name   |   ipt  |  iMate | kLev|   count |   mate.C|           
   255 |TRAC03  |     82 |      0 |  15 |       0 |
------------------------------------------------------------------------
listId=   13 ; file name: SiO2
 nFlds, nActive,       freq     &     phase        , nLev               
    1  |    1  |   2635200.000000         0.000000 |  15
 levels:   1   2   3   4   5   6   7   8   9  10  11  12  13  14  15
 diag# | name   |   ipt  |  iMate | kLev|   count |   mate.C|           
   268 |TRAC04  |     97 |      0 |  15 |       0 |
------------------------------------------------------------------------
listId=   14 ; file name: DOP
 nFlds, nActive,       freq     &     phase        , nLev               
    1  |    1  |   2635200.000000         0.000000 |  15
 levels:   1   2   3   4   5   6   7   8   9  10  11  12  13  14  15
 diag# | name   |   ipt  |  iMate | kLev|   count |   mate.C|           
   281 |TRAC05  |    112 |      0 |  15 |       0 |
------------------------------------------------------------------------
listId=   15 ; file name: DON
 nFlds, nActive,       freq     &     phase        , nLev               
    1  |    1  |   2635200.000000         0.000000 |  15
 levels:   1   2   3   4   5   6   7   8   9  10  11  12  13  14  15
 diag# | name   |   ipt  |  iMate | kLev|   count |   mate.C|           
   294 |TRAC06  |    127 |      0 |  15 |       0 |
------------------------------------------------------------------------
listId=   16 ; file name: DOFe
 nFlds, nActive,       freq     &     phase        , nLev               
    1  |    1  |   2635200.000000         0.000000 |  15
 levels:   1   2   3   4   5   6   7   8   9  10  11  12  13  14  15
 diag# | name   |   ipt  |  iMate | kLev|   count |   mate.C|           
   307 |TRAC07  |    142 |      0 |  15 |       0 |
------------------------------------------------------------------------
listId=   17 ; file name: ZOO1P
 nFlds, nActive,       freq     &     phase        , nLev               
    1  |    1  |   2635200.000000         0.000000 |  15
 levels:   1   2   3   4   5   6   7   8   9  10  11  12  13  14  15
 diag# | name   |   ipt  |  iMate | kLev|   count |   mate.C|           
   320 |TRAC08  |    157 |      0 |  15 |       0 |
------------------------------------------------------------------------
listId=   18 ; file name: ZOO1N
 nFlds, nActive,       freq     &     phase        , nLev               
    1  |    1  |   2635200.000000         0.000000 |  15
 levels:   1   2   3   4   5   6   7   8   9  10  11  12  13  14  15
 diag# | name   |   ipt  |  iMate | kLev|   count |   mate.C|           
   333 |TRAC09  |    172 |      0 |  15 |       0 |
------------------------------------------------------------------------
listId=   19 ; file name: ZOO1Fe
 nFlds, nActive,       freq     &     phase        , nLev               
    1  |    1  |   2635200.000000         0.000000 |  15
 levels:   1   2   3   4   5   6   7   8   9  10  11  12  13  14  15
 diag# | name   |   ipt  |  iMate | kLev|   count |   mate.C|           
   346 |TRAC10  |    187 |      0 |  15 |       0 |
------------------------------------------------------------------------
listId=   20 ; file name: ZOO1Si
 nFlds, nActive,       freq     &     phase        , nLev               
    1  |    1  |   2635200.000000         0.000000 |  15
 levels:   1   2   3   4   5   6   7   8   9  10  11  12  13  14  15
 diag# | name   |   ipt  |  iMate | kLev|   count |   mate.C|           
   359 |TRAC11  |    202 |      0 |  15 |       0 |
------------------------------------------------------------------------
listId=   21 ; file name: ZOO2P
 nFlds, nActive,       freq     &     phase        , nLev               
    1  |    1  |   2635200.000000         0.000000 |  15
 levels:   1   2   3   4   5   6   7   8   9  10  11  12  13  14  15
 diag# | name   |   ipt  |  iMate | kLev|   count |   mate.C|           
   372 |TRAC12  |    217 |      0 |  15 |       0 |
------------------------------------------------------------------------
listId=   22 ; file name: ZOO2N
 nFlds, nActive,       freq     &     phase        , nLev               
    1  |    1  |   2635200.000000         0.000000 |  15
 levels:   1   2   3   4   5   6   7   8   9  10  11  12  13  14  15
 diag# | name   |   ipt  |  iMate | kLev|   count |   mate.C|           
   385 |TRAC13  |    232 |      0 |  15 |       0 |
------------------------------------------------------------------------
listId=   23 ; file name: ZOO2Fe
 nFlds, nActive,       freq     &     phase        , nLev               
    1  |    1  |   2635200.000000         0.000000 |  15
 levels:   1   2   3   4   5   6   7   8   9  10  11  12  13  14  15
 diag# | name   |   ipt  |  iMate | kLev|   count |   mate.C|           
   398 |TRAC14  |    247 |      0 |  15 |       0 |
------------------------------------------------------------------------
listId=   24 ; file name: ZOO2Si
 nFlds, nActive,       freq     &     phase        , nLev               
    1  |    1  |   2635200.000000         0.000000 |  15
 levels:   1   2   3   4   5   6   7   8   9  10  11  12  13  14  15
 diag# | name   |   ipt  |  iMate | kLev|   count |   mate.C|           
   411 |TRAC15  |    262 |      0 |  15 |       0 |
------------------------------------------------------------------------
listId=   25 ; file name: POP
 nFlds, nActive,       freq     &     phase        , nLev               
    1  |    1  |   2635200.000000         0.000000 |  15
 levels:   1   2   3   4   5   6   7   8   9  10  11  12  13  14  15
 diag# | name   |   ipt  |  iMate | kLev|   count |   mate.C|           
   424 |TRAC16  |    277 |      0 |  15 |       0 |
------------------------------------------------------------------------
listId=   26 ; file name: PON
 nFlds, nActive,       freq     &     phase        , nLev               
    1  |    1  |   2635200.000000         0.000000 |  15
 levels:   1   2   3   4   5   6   7   8   9  10  11  12  13  14  15
 diag# | name   |   ipt  |  iMate | kLev|   count |   mate.C|           
   437 |TRAC17  |    292 |      0 |  15 |       0 |
------------------------------------------------------------------------
listId=   27 ; file name: POFe
 nFlds, nActive,       freq     &     phase        , nLev               
    1  |    1  |   2635200.000000         0.000000 |  15
 levels:   1   2   3   4   5   6   7   8   9  10  11  12  13  14  15
 diag# | name   |   ipt  |  iMate | kLev|   count |   mate.C|           
   450 |TRAC18  |    307 |      0 |  15 |       0 |
------------------------------------------------------------------------
listId=   28 ; file name: POSi
 nFlds, nActive,       freq     &     phase        , nLev               
    1  |    1  |   2635200.000000         0.000000 |  15
 levels:   1   2   3   4   5   6   7   8   9  10  11  12  13  14  15
 diag# | name   |   ipt  |  iMate | kLev|   count |   mate.C|           
   463 |TRAC19  |    322 |      0 |  15 |       0 |
------------------------------------------------------------------------
listId=   29 ; file name: NH4
 nFlds, nActive,       freq     &     phase        , nLev               
    1  |    1  |   2635200.000000         0.000000 |  15
 levels:   1   2   3   4   5   6   7   8   9  10  11  12  13  14  15
 diag# | name   |   ipt  |  iMate | kLev|   count |   mate.C|           
   476 |TRAC20  |    337 |      0 |  15 |       0 |
------------------------------------------------------------------------
listId=   30 ; file name: NO2
 nFlds, nActive,       freq     &     phase        , nLev               
    1  |    1  |   2635200.000000         0.000000 |  15
 levels:   1   2   3   4   5   6   7   8   9  10  11  12  13  14  15
 diag# | name   |   ipt  |  iMate | kLev|   count |   mate.C|           
   489 |TRAC21  |    352 |      0 |  15 |       0 |
------------------------------------------------------------------------
listId=   31 ; file name: Phy01
 nFlds, nActive,       freq     &     phase        , nLev               
    1  |    1  |   2635200.000000         0.000000 |  15
 levels:   1   2   3   4   5   6   7   8   9  10  11  12  13  14  15
 diag# | name   |   ipt  |  iMate | kLev|   count |   mate.C|           
   502 |TRAC22  |    367 |      0 |  15 |       0 |
------------------------------------------------------------------------
listId=   32 ; file name: Phy02
 nFlds, nActive,       freq     &     phase        , nLev               
    1  |    1  |   2635200.000000         0.000000 |  15
 levels:   1   2   3   4   5   6   7   8   9  10  11  12  13  14  15
 diag# | name   |   ipt  |  iMate | kLev|   count |   mate.C|           
   515 |TRAC23  |    382 |      0 |  15 |       0 |
------------------------------------------------------------------------
listId=   33 ; file name: Phy03
 nFlds, nActive,       freq     &     phase        , nLev               
    1  |    1  |   2635200.000000         0.000000 |  15
 levels:   1   2   3   4   5   6   7   8   9  10  11  12  13  14  15
 diag# | name   |   ipt  |  iMate | kLev|   count |   mate.C|           
   528 |TRAC24  |    397 |      0 |  15 |       0 |
------------------------------------------------------------------------
listId=   34 ; file name: Phy04
 nFlds, nActive,       freq     &     phase        , nLev               
    1  |    1  |   2635200.000000         0.000000 |  15
 levels:   1   2   3   4   5   6   7   8   9  10  11  12  13  14  15
 diag# | name   |   ipt  |  iMate | kLev|   count |   mate.C|           
   541 |TRAC25  |    412 |      0 |  15 |       0 |
------------------------------------------------------------------------
listId=   35 ; file name: Phy05
 nFlds, nActive,       freq     &     phase        , nLev               
    1  |    1  |   2635200.000000         0.000000 |  15
 levels:   1   2   3   4   5   6   7   8   9  10  11  12  13  14  15
 diag# | name   |   ipt  |  iMate | kLev|   count |   mate.C|           
   554 |TRAC26  |    427 |      0 |  15 |       0 |
------------------------------------------------------------------------
listId=   36 ; file name: DOC
 nFlds, nActive,       freq     &     phase        , nLev               
    1  |    1  |   2635200.000000         0.000000 |  15
 levels:   1   2   3   4   5   6   7   8   9  10  11  12  13  14  15
 diag# | name   |   ipt  |  iMate | kLev|   count |   mate.C|           
   645 |TRAC33  |    442 |      0 |  15 |       0 |
------------------------------------------------------------------------
listId=   37 ; file name: POC
 nFlds, nActive,       freq     &     phase        , nLev               
    1  |    1  |   2635200.000000         0.000000 |  15
 levels:   1   2   3   4   5   6   7   8   9  10  11  12  13  14  15
 diag# | name   |   ipt  |  iMate | kLev|   count |   mate.C|           
   658 |TRAC34  |    457 |      0 |  15 |       0 |
------------------------------------------------------------------------
listId=   38 ; file name: PIC
 nFlds, nActive,       freq     &     phase        , nLev               
    1  |    1  |   2635200.000000         0.000000 |  15
 levels:   1   2   3   4   5   6   7   8   9  10  11  12  13  14  15
 diag# | name   |   ipt  |  iMate | kLev|   count |   mate.C|           
   671 |TRAC35  |    472 |      0 |  15 |       0 |
------------------------------------------------------------------------
listId=   39 ; file name: ALK
 nFlds, nActive,       freq     &     phase        , nLev               
    1  |    1  |   2635200.000000         0.000000 |  15
 levels:   1   2   3   4   5   6   7   8   9  10  11  12  13  14  15
 diag# | name   |   ipt  |  iMate | kLev|   count |   mate.C|           
   684 |TRAC36  |    487 |      0 |  15 |       0 |
------------------------------------------------------------------------
listId=   40 ; file name: O2
 nFlds, nActive,       freq     &     phase        , nLev               
    1  |    1  |   2635200.000000         0.000000 |  15
 levels:   1   2   3   4   5   6   7   8   9  10  11  12  13  14  15
 diag# | name   |   ipt  |  iMate | kLev|   count |   mate.C|           
   697 |TRAC37  |    502 |      0 |  15 |       0 |
------------------------------------------------------------------------
listId=   41 ; file name: ZOOC1
 nFlds, nActive,       freq     &     phase        , nLev               
    1  |    1  |   2635200.000000         0.000000 |  15
 levels:   1   2   3   4   5   6   7   8   9  10  11  12  13  14  15
 diag# | name   |   ipt  |  iMate | kLev|   count |   mate.C|           
   710 |TRAC38  |    517 |      0 |  15 |       0 |
------------------------------------------------------------------------
listId=   42 ; file name: ZOOC2
 nFlds, nActive,       freq     &     phase        , nLev               
    1  |    1  |   2635200.000000         0.000000 |  15
 levels:   1   2   3   4   5   6   7   8   9  10  11  12  13  14  15
 diag# | name   |   ipt  |  iMate | kLev|   count |   mate.C|           
   723 |TRAC39  |    532 |      0 |  15 |       0 |
------------------------------------------------------------------------
listId=   43 ; file name: CHL1
 nFlds, nActive,       freq     &     phase        , nLev               
    1  |    1  |   2635200.000000         0.000000 |  15
 levels:   1   2   3   4   5   6   7   8   9  10  11  12  13  14  15
 diag# | name   |   ipt  |  iMate | kLev|   count |   mate.C|           
   567 |TRAC27  |    547 |      0 |  15 |       0 |
------------------------------------------------------------------------
listId=   44 ; file name: CHL2
 nFlds, nActive,       freq     &     phase        , nLev               
    1  |    1  |   2635200.000000         0.000000 |  15
 levels:   1   2   3   4   5   6   7   8   9  10  11  12  13  14  15
 diag# | name   |   ipt  |  iMate | kLev|   count |   mate.C|           
   580 |TRAC28  |    562 |      0 |  15 |       0 |
------------------------------------------------------------------------
listId=   45 ; file name: CHL3
 nFlds, nActive,       freq     &     phase        , nLev               
    1  |    1  |   2635200.000000         0.000000 |  15
 levels:   1   2   3   4   5   6   7   8   9  10  11  12  13  14  15
 diag# | name   |   ipt  |  iMate | kLev|   count |   mate.C|           
   593 |TRAC29  |    577 |      0 |  15 |       0 |
------------------------------------------------------------------------
listId=   46 ; file name: CHL4
 nFlds, nActive,       freq     &     phase        , nLev               
    1  |    1  |   2635200.000000         0.000000 |  15
 levels:   1   2   3   4   5   6   7   8   9  10  11  12  13  14  15
 diag# | name   |   ipt  |  iMate | kLev|   count |   mate.C|           
   606 |TRAC30  |    592 |      0 |  15 |       0 |
------------------------------------------------------------------------
listId=   47 ; file name: CHL5
 nFlds, nActive,       freq     &     phase        , nLev               
    1  |    1  |   2635200.000000         0.000000 |  15
 levels:   1   2   3   4   5   6   7   8   9  10  11  12  13  14  15
 diag# | name   |   ipt  |  iMate | kLev|   count |   mate.C|           
   619 |TRAC31  |    607 |      0 |  15 |       0 |
------------------------------------------------------------------------
listId=   48 ; file name: EXFwspee
 nFlds, nActive,       freq     &     phase        , nLev               
    1  |    1  |     86400.000000         0.000000 |   1
 levels:   1
 diag# | name   |   ipt  |  iMate | kLev|   count |   mate.C|           
   191 |EXFwspee|    622 |      0 |   1 |       0 |
------------------------------------------------------------------------
listId=   49 ; file name: PAR
 nFlds, nActive,       freq     &     phase        , nLev               
    1  |    1  |   2635200.000000         0.000000 |  15
 levels:   1   2   3   4   5   6   7   8   9  10  11  12  13  14  15
 diag# | name   |   ipt  |  iMate | kLev|   count |   mate.C|           
   750 |PAR     |    623 |      0 |  15 |       0 |
------------------------------------------------------------------------
listId=   50 ; file name: PP
 nFlds, nActive,       freq     &     phase        , nLev               
    1  |    1  |   2635200.000000         0.000000 |  15
 levels:   1   2   3   4   5   6   7   8   9  10  11  12  13  14  15
 diag# | name   |   ipt  |  iMate | kLev|   count |   mate.C|           
   751 |PP      |    638 |      0 |  15 |       0 |
------------------------------------------------------------------------
listId=   51 ; file name: SIarea_month
 nFlds, nActive,       freq     &     phase        , nLev               
    1  |    1  |   2635200.000000         0.000000 |   1
 levels:   1
 diag# | name   |   ipt  |  iMate | kLev|   count |   mate.C|           
   825 |SIarea  |    653 |      0 |   1 |       0 |
------------------------------------------------------------------------
listId=   52 ; file name: SIheff_month
 nFlds, nActive,       freq     &     phase        , nLev               
    1  |    1  |   2635200.000000         0.000000 |   1
 levels:   1
 diag# | name   |   ipt  |  iMate | kLev|   count |   mate.C|           
   828 |SIheff  |    654 |      0 |   1 |       0 |
------------------------------------------------------------------------
listId=   53 ; file name: EXFapco2month
 nFlds, nActive,       freq     &     phase        , nLev               
    1  |    1  |   2635200.000000         0.000000 |   1
 levels:   1
 diag# | name   |   ipt  |  iMate | kLev|   count |   mate.C|           
   202 |EXFapco2|    655 |      0 |   1 |       0 |
------------------------------------------------------------------------
listId=   54 ; file name: EXFapco2snap
 nFlds, nActive,       freq     &     phase        , nLev               
    1  |    1  |  -2535200.000000         0.000000 |   1
 levels:   1
 diag# | name   |   ipt  |  iMate | kLev|   count |   mate.C|           
   202 |EXFapco2|    656 |      0 |   1 |       0 |
------------------------------------------------------------------------
listId=   55 ; file name: DICCFLX3hrly
 nFlds, nActive,       freq     &     phase        , nLev               
    1  |    1  |     10800.000000         0.000000 |   1
 levels:   1
 diag# | name   |   ipt  |  iMate | kLev|   count |   mate.C|           
   758 |DICCFLX |    657 |      0 |   1 |       0 |
------------------------------------------------------------------------
listId=   56 ; file name: DICFGCO2
 nFlds, nActive,       freq     &     phase        , nLev               
    1  |    1  |   2635200.000000         0.000000 |   1
 levels:   1
 diag# | name   |   ipt  |  iMate | kLev|   count |   mate.C|           
   759 |DICFGCO2|    658 |      0 |   1 |       0 |
------------------------------------------------------------------------
listId=   57 ; file name: UE_VEL_C
 nFlds, nActive,       freq     &     phase        , nLev               
    1  |    1  |   2635200.000000         0.000000 |  15
 levels:   1   2   3   4   5   6   7   8   9  10  11  12  13  14  15
 diag# | name   |   ipt  |  iMate | kLev|   count |   mate.C|           
    39 |UE_VEL_C|    659 |    674 |  15 |       0 |       0 |
------------------------------------------------------------------------
listId=   58 ; file name: VN_VEL_C
 nFlds, nActive,       freq     &     phase        , nLev               
    1  |    1  |   2635200.000000         0.000000 |  15
 levels:   1   2   3   4   5   6   7   8   9  10  11  12  13  14  15
 diag# | name   |   ipt  |  iMate | kLev|   count |   mate.C|           
    40 |VN_VEL_C|    674 |    659 |  15 |       0 |       0 |
------------------------------------------------------------------------
listId=   59 ; file name: WVEL
 nFlds, nActive,       freq     &     phase        , nLev               
    1  |    1  |   2635200.000000         0.000000 |  15
 levels:   1   2   3   4   5   6   7   8   9  10  11  12  13  14  15
 diag# | name   |   ipt  |  iMate | kLev|   count |   mate.C|           
    32 |WVEL    |    689 |      0 |  15 |       0 |
------------------------------------------------------------------------
listId=   60 ; file name: DICCFLXmonth
 nFlds, nActive,       freq     &     phase        , nLev               
    1  |    1  |   2635200.000000         0.000000 |   1
 levels:   1
 diag# | name   |   ipt  |  iMate | kLev|   count |   mate.C|           
   758 |DICCFLX |    704 |      0 |   1 |       0 |
------------------------------------------------------------------------
listId=   61 ; file name: DICPCO2month
 nFlds, nActive,       freq     &     phase        , nLev               
    1  |    1  |   2635200.000000         0.000000 |   1
 levels:   1
 diag# | name   |   ipt  |  iMate | kLev|   count |   mate.C|           
   760 |DICPCO2 |    705 |      0 |   1 |       0 |
------------------------------------------------------------------------
listId=   62 ; file name: DICOFLX_month
 nFlds, nActive,       freq     &     phase        , nLev               
    1  |    1  |   2635200.000000         0.000000 |   1
 levels:   1
 diag# | name   |   ipt  |  iMate | kLev|   count |   mate.C|           
   757 |DICOFLX |    706 |      0 |   1 |       0 |
------------------------------------------------------------------------
listId=   63 ; file name: oceQswMonth
 nFlds, nActive,       freq     &     phase        , nLev               
    1  |    1  |   2635200.000000         0.000000 |   1
 levels:   1
 diag# | name   |   ipt  |  iMate | kLev|   count |   mate.C|           
    87 |oceQsw  |    707 |      0 |   1 |       0 |
------------------------------------------------------------------------
listId=   64 ; file name: oceQnetMonth
 nFlds, nActive,       freq     &     phase        , nLev               
    1  |    1  |   2635200.000000         0.000000 |   1
 levels:   1
 diag# | name   |   ipt  |  iMate | kLev|   count |   mate.C|           
    86 |oceQnet |    708 |      0 |   1 |       0 |
------------------------------------------------------------------------
listId=   65 ; file name: EXFwspeeMonth
 nFlds, nActive,       freq     &     phase        , nLev               
    1  |    1  |   2635200.000000         0.000000 |   1
 levels:   1
 diag# | name   |   ipt  |  iMate | kLev|   count |   mate.C|           
   191 |EXFwspee|    709 |      0 |   1 |       0 |
------------------------------------------------------------------------
listId=   66 ; file name: surfDiag
 nFlds, nActive,       freq     &     phase        , nLev               
    5  |    5  |   2635200.000000         0.000000 |   1
 levels:   1
 diag# | name   |   ipt  |  iMate | kLev|   count |   mate.C|           
    93 |TFLUX   |    710 |      0 |   1 |       0 |
    94 |SFLUX   |    711 |      0 |   1 |       0 |
    77 |MXLDEPTH|    712 |      0 |   1 |       0 |
    84 |oceFWflx|    713 |      0 |   1 |       0 |
    87 |oceQsw  |   -707 |      0 |   1 |       0 |
------------------------------------------------------------------------
listId=   67 ; file name: velMassDiag
 nFlds, nActive,       freq     &     phase        , nLev               
    3  |    3  |   2635200.000000         0.000000 |  15
 levels:   1   2   3   4   5   6   7   8   9  10  11  12  13  14  15
 diag# | name   |   ipt  |  iMate | kLev|   count |   mate.C|           
    45 |UVELMASS|    714 |    729 |  15 |       0 |       0 |
    46 |VVELMASS|    729 |    714 |  15 |       0 |       0 |
    47 |WVELMASS|    744 |      0 |  15 |       0 |
------------------------------------------------------------------------
listId=   68 ; file name: dic_surfDiag
 nFlds, nActive,       freq     &     phase        , nLev               
    2  |    2  |   2635200.000000         0.000000 |   1
 levels:   1
 diag# | name   |   ipt  |  iMate | kLev|   count |   mate.C|           
   758 |DICCFLX |   -704 |      0 |   1 |       0 |
   756 |DICTFLX |    759 |      0 |   1 |       0 |
------------------------------------------------------------------------
listId=   69 ; file name: theta_flxDiag
 nFlds, nActive,       freq     &     phase        , nLev               
    9  |    9  |   2635200.000000         0.000000 |  15
 levels:   1   2   3   4   5   6   7   8   9  10  11  12  13  14  15
 diag# | name   |   ipt  |  iMate | kLev|   count |   mate.C|           
    26 |THETA   |    -17 |      0 |  15 |       0 |
    99 |TOTTTEND|    760 |      0 |  15 |       0 |
   111 |ADVx_TH |    775 |    790 |  15 |       0 |       0 |
   112 |ADVy_TH |    790 |    775 |  15 |       0 |       0 |
   110 |ADVr_TH |    805 |      0 |  15 |       0 |
   114 |DFxE_TH |    820 |    835 |  15 |       0 |       0 |
   115 |DFyE_TH |    835 |    820 |  15 |       0 |       0 |
   113 |DFrE_TH |    850 |      0 |  15 |       0 |
   116 |DFrI_TH |    865 |      0 |  15 |       0 |
------------------------------------------------------------------------
listId=   70 ; file name: salt_flxDiag
 nFlds, nActive,       freq     &     phase        , nLev               
   10  |   10  |   2635200.000000         0.000000 |  15
 levels:   1   2   3   4   5   6   7   8   9  10  11  12  13  14  15
 diag# | name   |   ipt  |  iMate | kLev|   count |   mate.C|           
    27 |SALT    |    880 |      0 |  15 |       0 |
   100 |TOTSTEND|    895 |      0 |  15 |       0 |
   118 |ADVx_SLT|    910 |    925 |  15 |       0 |       0 |
   119 |ADVy_SLT|    925 |    910 |  15 |       0 |       0 |
   117 |ADVr_SLT|    940 |      0 |  15 |       0 |
   121 |DFxE_SLT|    955 |    970 |  15 |       0 |       0 |
   122 |DFyE_SLT|    970 |    955 |  15 |       0 |       0 |
   120 |DFrE_SLT|    985 |      0 |  15 |       0 |
   123 |DFrI_SLT|   1000 |      0 |  15 |       0 |
   896 |oceSPtnd|   1015 |      0 |  15 |       0 |
------------------------------------------------------------------------
listId=   71 ; file name: dic_flxDiag
 nFlds, nActive,       freq     &     phase        , nLev               
    8  |    8  |   2635200.000000         0.000000 |  15
 levels:   1   2   3   4   5   6   7   8   9  10  11  12  13  14  15
 diag# | name   |   ipt  |  iMate | kLev|   count |   mate.C|           
   632 |TRAC32  |    -32 |      0 |  15 |       0 |
   639 |ADVxTr32|   1030 |   1045 |  15 |       0 |       0 |
   640 |ADVyTr32|   1045 |   1030 |  15 |       0 |       0 |
   638 |ADVrTr32|   1060 |      0 |  15 |       0 |
   642 |DFxETr32|   1075 |   1090 |  15 |       0 |       0 |
   643 |DFyETr32|   1090 |   1075 |  15 |       0 |       0 |
   641 |DFrETr32|   1105 |      0 |  15 |       0 |
   644 |DFrITr32|   1120 |      0 |  15 |       0 |
------------------------------------------------------------------------
listId=   72 ; file name: alk_flxDiag
 nFlds, nActive,       freq     &     phase        , nLev               
    8  |    8  |   2635200.000000         0.000000 |  15
 levels:   1   2   3   4   5   6   7   8   9  10  11  12  13  14  15
 diag# | name   |   ipt  |  iMate | kLev|   count |   mate.C|           
   684 |TRAC36  |   -487 |      0 |  15 |       0 |
   691 |ADVxTr36|   1135 |   1150 |  15 |       0 |       0 |
   692 |ADVyTr36|   1150 |   1135 |  15 |       0 |       0 |
   690 |ADVrTr36|   1165 |      0 |  15 |       0 |
   694 |DFxETr36|   1180 |   1195 |  15 |       0 |       0 |
   695 |DFyETr36|   1195 |   1180 |  15 |       0 |       0 |
   693 |DFrETr36|   1210 |      0 |  15 |       0 |
   696 |DFrITr36|   1225 |      0 |  15 |       0 |
------------------------------------------------------------------------
listId=   73 ; file name: po4_flxDiag
 nFlds, nActive,       freq     &     phase        , nLev               
    8  |    8  |   2635200.000000         0.000000 |  15
 levels:   1   2   3   4   5   6   7   8   9  10  11  12  13  14  15
 diag# | name   |   ipt  |  iMate | kLev|   count |   mate.C|           
   229 |TRAC01  |    -52 |      0 |  15 |       0 |
   236 |ADVxTr01|   1240 |   1255 |  15 |       0 |       0 |
   237 |ADVyTr01|   1255 |   1240 |  15 |       0 |       0 |
   235 |ADVrTr01|   1270 |      0 |  15 |       0 |
   239 |DFxETr01|   1285 |   1300 |  15 |       0 |       0 |
   240 |DFyETr01|   1300 |   1285 |  15 |       0 |       0 |
   238 |DFrETr01|   1315 |      0 |  15 |       0 |
   241 |DFrITr01|   1330 |      0 |  15 |       0 |
------------------------------------------------------------------------
listId=   74 ; file name: snapDiag
 nFlds, nActive,       freq     &     phase        , nLev               
    5  |    5  |  -2635200.000000         0.000000 |  15
 levels:   1   2   3   4   5   6   7   8   9  10  11  12  13  14  15
 diag# | name   |   ipt  |  iMate | kLev|   count |   mate.C|           
    26 |THETA   |   1345 |      0 |  15 |       0 |
    27 |SALT    |   1360 |      0 |  15 |       0 |
   632 |TRAC32  |   1375 |      0 |  15 |       0 |
   684 |TRAC36  |   1390 |      0 |  15 |       0 |
   229 |TRAC01  |   1405 |      0 |  15 |       0 |
------------------------------------------------------------------------
Global & Regional Statistics diagnostics: Number of lists:     0
------------------------------------------------------------------------
(PID.TID 0000.0001)  MDS_READ_FIELD: opening global file: ptracers_optimized_01.0000000001
(PID.TID 0000.0001)  MDS_READ_FIELD: opening global file: ptracers_optimized_02.0000000001
(PID.TID 0000.0001)  MDS_READ_FIELD: opening global file: ptracers_optimized_03.0000000001
(PID.TID 0000.0001)  MDS_READ_FIELD: opening global file: ptracers_optimized_04.0000000001
(PID.TID 0000.0001)  MDS_READ_FIELD: opening global file: ptracers_optimized_05.0000000001
(PID.TID 0000.0001)  MDS_READ_FIELD: opening global file: ptracers_optimized_06.0000000001
(PID.TID 0000.0001)  MDS_READ_FIELD: opening global file: ptracers_optimized_07.0000000001
(PID.TID 0000.0001)  MDS_READ_FIELD: opening global file: ptracers_optimized_08.0000000001
(PID.TID 0000.0001)  MDS_READ_FIELD: opening global file: ptracers_optimized_09.0000000001
(PID.TID 0000.0001)  MDS_READ_FIELD: opening global file: ptracers_optimized_10.0000000001
(PID.TID 0000.0001)  MDS_READ_FIELD: opening global file: ptracers_optimized_11.0000000001
(PID.TID 0000.0001)  MDS_READ_FIELD: opening global file: ptracers_optimized_12.0000000001
(PID.TID 0000.0001)  MDS_READ_FIELD: opening global file: ptracers_optimized_13.0000000001
(PID.TID 0000.0001)  MDS_READ_FIELD: opening global file: ptracers_optimized_14.0000000001
(PID.TID 0000.0001)  MDS_READ_FIELD: opening global file: ptracers_optimized_15.0000000001
(PID.TID 0000.0001)  MDS_READ_FIELD: opening global file: ptracers_optimized_16.0000000001
(PID.TID 0000.0001)  MDS_READ_FIELD: opening global file: ptracers_optimized_17.0000000001
(PID.TID 0000.0001)  MDS_READ_FIELD: opening global file: ptracers_optimized_18.0000000001
(PID.TID 0000.0001)  MDS_READ_FIELD: opening global file: ptracers_optimized_19.0000000001
(PID.TID 0000.0001)  MDS_READ_FIELD: opening global file: ptracers_optimized_20.0000000001
(PID.TID 0000.0001)  MDS_READ_FIELD: opening global file: ptracers_optimized_21.0000000001
(PID.TID 0000.0001)  MDS_READ_FIELD: opening global file: ptracers_optimized_22.0000000001
(PID.TID 0000.0001)  MDS_READ_FIELD: opening global file: ptracers_optimized_23.0000000001
(PID.TID 0000.0001)  MDS_READ_FIELD: opening global file: ptracers_optimized_24.0000000001
(PID.TID 0000.0001)  MDS_READ_FIELD: opening global file: ptracers_optimized_25.0000000001
(PID.TID 0000.0001)  MDS_READ_FIELD: opening global file: ptracers_optimized_26.0000000001
(PID.TID 0000.0001)  MDS_READ_FIELD: opening global file: ptracers_optimized_27.0000000001
(PID.TID 0000.0001)  MDS_READ_FIELD: opening global file: ptracers_optimized_28.0000000001
(PID.TID 0000.0001)  MDS_READ_FIELD: opening global file: ptracers_optimized_29.0000000001
(PID.TID 0000.0001)  MDS_READ_FIELD: opening global file: ptracers_optimized_30.0000000001
(PID.TID 0000.0001)  MDS_READ_FIELD: opening global file: ptracers_optimized_31.0000000001
(PID.TID 0000.0001)  MDS_READ_FIELD: opening global file: ptracers_optimized_32.0000000001
(PID.TID 0000.0001)  MDS_READ_FIELD: opening global file: ptracers_optimized_33.0000000001
(PID.TID 0000.0001)  MDS_READ_FIELD: opening global file: ptracers_optimized_34.0000000001
(PID.TID 0000.0001)  MDS_READ_FIELD: opening global file: ptracers_optimized_35.0000000001
(PID.TID 0000.0001)  MDS_READ_FIELD: opening global file: ptracers_optimized_36.0000000001
(PID.TID 0000.0001)  MDS_READ_FIELD: opening global file: ptracers_optimized_37.0000000001
(PID.TID 0000.0001)  MDS_READ_FIELD: opening global file: ptracers_optimized_38.0000000001
(PID.TID 0000.0001)  MDS_READ_FIELD: opening global file: ptracers_optimized_39.0000000001
(PID.TID 0000.0001) // =======================================================
(PID.TID 0000.0001) // Darwin init variables >>> START <<<
(PID.TID 0000.0001) // =======================================================
(PID.TID 0000.0001) QQ random port_rand               56   0.3052905000000000
(PID.TID 0000.0001) generate Phyto: np =    1 FIXED - no DIAZO
(PID.TID 0000.0001) generate Phyto: np =    1 Topt       =   0.00000000000000
(PID.TID 0000.0001) generate Phyto: np =    1 growthdays =  0.422600000000000
(PID.TID 0000.0001) generate Phyto: np =    1 pcmax    =  2.738777584967836E-005
(PID.TID 0000.0001) generate Phyto: np =    1 mQyield    =  3.000000000000000E-005
(PID.TID 0000.0001) generate Phyto: np =    1 chl2cmax     =  0.500000000000000
(PID.TID 0000.0001) generate Phyto: np =    2 FIXED - no DIAZO
(PID.TID 0000.0001) generate Phyto: np =    2 Topt       =   0.00000000000000
(PID.TID 0000.0001) generate Phyto: np =    2 growthdays =  0.422600000000000
(PID.TID 0000.0001) generate Phyto: np =    2 pcmax    =  2.738777584967836E-005
(PID.TID 0000.0001) generate Phyto: np =    2 mQyield    =  3.000000000000000E-005
(PID.TID 0000.0001) generate Phyto: np =    2 chl2cmax     =  0.500000000000000
(PID.TID 0000.0001) generate Phyto: np =    3 FIXED - no DIAZO
(PID.TID 0000.0001) generate Phyto: np =    3 Topt       =   0.00000000000000
(PID.TID 0000.0001) generate Phyto: np =    3 growthdays =  0.691800000000000
(PID.TID 0000.0001) generate Phyto: np =    3 pcmax    =  1.673037593823948E-005
(PID.TID 0000.0001) generate Phyto: np =    3 mQyield    =  5.000000000000000E-005
(PID.TID 0000.0001) generate Phyto: np =    3 chl2cmax     =  0.200000000000000
(PID.TID 0000.0001) generate Phyto: np =    4 FIXED - no DIAZO
(PID.TID 0000.0001) generate Phyto: np =    4 Topt       =   0.00000000000000
(PID.TID 0000.0001) generate Phyto: np =    4 growthdays =  0.691800000000000
(PID.TID 0000.0001) generate Phyto: np =    4 pcmax    =  1.673037593823948E-005
(PID.TID 0000.0001) generate Phyto: np =    4 mQyield    =  5.000000000000000E-005
(PID.TID 0000.0001) generate Phyto: np =    4 chl2cmax     =  0.200000000000000
(PID.TID 0000.0001) generate Phyto: np =    5 FIXED - no DIAZO
(PID.TID 0000.0001) generate Phyto: np =    5 Topt       =   0.00000000000000
(PID.TID 0000.0001) generate Phyto: np =    5 growthdays =  0.691800000000000
(PID.TID 0000.0001) generate Phyto: np =    5 pcmax    =  1.673037593823948E-005
(PID.TID 0000.0001) generate Phyto: np =    5 mQyield    =  5.000000000000000E-005
(PID.TID 0000.0001) generate Phyto: np =    5 chl2cmax     =  0.200000000000000
(PID.TID 0000.0001) // =======================================================
(PID.TID 0000.0001) // Darwin check Chl >>> START <<<
(PID.TID 0000.0001) // =======================================================
(PID.TID 0000.0001) S/R DARWIN_FIELDS_LOAD: Reading forcing data  0.000000000000E+00          0
(PID.TID 0000.0001)  MDS_READ_FIELD: opening global file: 3deg_Mahowald_2009_soluble_iron_dust.bin
(PID.TID 0000.0001)  MDS_READ_FIELD: opening global file: 3deg_Mahowald_2009_soluble_iron_dust.bin
 initial Chl  0.19089171290397644        9.7291143611073494E-003
 initial Chl   6.6537529230117798E-002   3.9866366423666477E-003
 initial Chl  -5.5416667833924294E-002  -2.3090278264135122E-003
 initial Chl   1.2894126655282889E-007   1.6688984416646235E-008
 initial Chl  0.12595416605472565        1.5293302014470100E-002
 initial Chl   5.9211140523984795E-005   9.8685234206641326E-007
 initial Chl   1.6143763787113130E-004   2.6906272978521883E-006
 initial Chl   2.1615844219923019E-002   5.6500863283872604E-003
 initial Chl   1.6318133511106225E-009   6.7992222962942606E-011
 initial Chl  0.12631300091743469        5.2630417048931122E-003
(PID.TID 0000.0001) // =======================================================
(PID.TID 0000.0001) // Darwin check chl >>> END <<<
(PID.TID 0000.0001) // =======================================================
(PID.TID 0000.0001) // =======================================================
(PID.TID 0000.0001) // Darwin init variables >>> END <<<
(PID.TID 0000.0001) // =======================================================
(PID.TID 0000.0001) EXF_SET_FLD: processing field "apco2",  file: apCO2_2000
(PID.TID 0000.0001) EXF_SET_FLD:   myIter, count0, count1:        -1     12      1
(PID.TID 0000.0001) EXF_SET_FLD:   first, changed, fac:   T   F   0.500000000E+00
(PID.TID 0000.0001) EXF_SET_FLD: field "apco2", it=        -1, loading rec=    12
(PID.TID 0000.0001) EXF_SET_FLD:   from file: "apCO2_2000"
(PID.TID 0000.0001)  EXF_INTERP_READ: opening file: apCO2_2000
(PID.TID 0000.0001)  EXF_INTERP: file="apCO2_2000", rec=    12 , x-Per,P.Sym=    T    T
(PID.TID 0000.0001)  S.edge (j=-1,0,1) : proc= 2.2 1.1 0.0, yIn=  -91.500000  -90.000000  -88.500000
(PID.TID 0000.0001)  N.edge (j=+0,+1,+2) proc= 0.0 1.1 2.2, yIn=   88.500000   90.000000   91.500000
(PID.TID 0000.0001) EXF_SET_FLD: field "apco2", it=        -1, loading rec=     1
(PID.TID 0000.0001) EXF_SET_FLD:   from file: "apCO2_2000"
(PID.TID 0000.0001)  EXF_INTERP_READ: opening file: apCO2_2000
(PID.TID 0000.0001)  EXF_INTERP: file="apCO2_2000", rec=     1 , x-Per,P.Sym=    T    T
(PID.TID 0000.0001)  S.edge (j=-1,0,1) : proc= 2.2 1.1 0.0, yIn=  -91.500000  -90.000000  -88.500000
(PID.TID 0000.0001)  N.edge (j=+0,+1,+2) proc= 0.0 1.1 2.2, yIn=   88.500000   90.000000   91.500000
(PID.TID 0000.0001) EXF_SET_UV: processing fields "uwind" & "vwind"
(PID.TID 0000.0001) EXF_SET_UV:   files: EIG_u10m_2000 & EIG_v10m_2000
(PID.TID 0000.0001) EXF_SET_UV:   myIter, count0, count1:        -1     12      1
(PID.TID 0000.0001) EXF_SET_UV:   first, changed, fac:   T   F   0.500000000E+00
(PID.TID 0000.0001) EXF_SET_UV: fields "uwind" & "vwind", it=        -1
(PID.TID 0000.0001) EXF_SET_UV:   loading rec=    12 from file: "EIG_u10m_2000"
(PID.TID 0000.0001) EXF_SET_UV:   loading rec=    12 from file: "EIG_v10m_2000"
(PID.TID 0000.0001)  EXF_INTERP_READ: opening file: EIG_u10m_2000
(PID.TID 0000.0001)  EXF_INTERP_READ: opening file: EIG_v10m_2000
(PID.TID 0000.0001)  EXF_INTERP_UV: fileU="EIG_u10m_2000", rec=    12 , x-Per,P.Sym=    T    T
(PID.TID 0000.0001)  S.edge (j=-1,0,1) : proc= 2.2 1.1 0.0, yIn=  -91.500000  -90.000000  -88.500000
(PID.TID 0000.0001)  N.edge (j=+0,+1,+2) proc= 0.0 1.1 2.2, yIn=   88.500000   90.000000   91.500000
(PID.TID 0000.0001) EXF_SET_UV: fields "uwind" & "vwind", it=        -1
(PID.TID 0000.0001) EXF_SET_UV:   loading rec=     1 from file: "EIG_u10m_2000"
(PID.TID 0000.0001) EXF_SET_UV:   loading rec=     1 from file: "EIG_v10m_2000"
(PID.TID 0000.0001)  EXF_INTERP_READ: opening file: EIG_u10m_2000
(PID.TID 0000.0001)  EXF_INTERP_READ: opening file: EIG_v10m_2000
(PID.TID 0000.0001)  EXF_INTERP_UV: fileU="EIG_u10m_2000", rec=     1 , x-Per,P.Sym=    T    T
(PID.TID 0000.0001)  S.edge (j=-1,0,1) : proc= 2.2 1.1 0.0, yIn=  -91.500000  -90.000000  -88.500000
(PID.TID 0000.0001)  N.edge (j=+0,+1,+2) proc= 0.0 1.1 2.2, yIn=   88.500000   90.000000   91.500000
(PID.TID 0000.0001) EXF_SET_FLD: processing field "atemp",  file: EIG_tmp2m_degC_plus_ECCO_v4r1_ctrl_2000
(PID.TID 0000.0001) EXF_SET_FLD:   myIter, count0, count1:        -1     12      1
(PID.TID 0000.0001) EXF_SET_FLD:   first, changed, fac:   T   F   0.500000000E+00
(PID.TID 0000.0001) EXF_SET_FLD: field "atemp", it=        -1, loading rec=    12
(PID.TID 0000.0001) EXF_SET_FLD:   from file: "EIG_tmp2m_degC_plus_ECCO_v4r1_ctrl_2000"
(PID.TID 0000.0001)  EXF_INTERP_READ: opening file: EIG_tmp2m_degC_plus_ECCO_v4r1_ctrl_2000
(PID.TID 0000.0001)  EXF_INTERP: file="EIG_tmp2m_degC_plus_ECCO_v4r1_ctrl_2000", rec=    12 , x-Per,P.Sym=    T    T
(PID.TID 0000.0001)  S.edge (j=-1,0,1) : proc= 2.2 1.1 0.0, yIn=  -91.500000  -90.000000  -88.500000
(PID.TID 0000.0001)  N.edge (j=+0,+1,+2) proc= 0.0 1.1 2.2, yIn=   88.500000   90.000000   91.500000
(PID.TID 0000.0001) EXF_SET_FLD: field "atemp", it=        -1, loading rec=     1
(PID.TID 0000.0001) EXF_SET_FLD:   from file: "EIG_tmp2m_degC_plus_ECCO_v4r1_ctrl_2000"
(PID.TID 0000.0001)  EXF_INTERP_READ: opening file: EIG_tmp2m_degC_plus_ECCO_v4r1_ctrl_2000
(PID.TID 0000.0001)  EXF_INTERP: file="EIG_tmp2m_degC_plus_ECCO_v4r1_ctrl_2000", rec=     1 , x-Per,P.Sym=    T    T
(PID.TID 0000.0001)  S.edge (j=-1,0,1) : proc= 2.2 1.1 0.0, yIn=  -91.500000  -90.000000  -88.500000
(PID.TID 0000.0001)  N.edge (j=+0,+1,+2) proc= 0.0 1.1 2.2, yIn=   88.500000   90.000000   91.500000
(PID.TID 0000.0001) EXF_SET_FLD: processing field "aqh",  file: EIG_spfh2m_plus_ECCO_v4r1_ctrl_2000
(PID.TID 0000.0001) EXF_SET_FLD:   myIter, count0, count1:        -1     12      1
(PID.TID 0000.0001) EXF_SET_FLD:   first, changed, fac:   T   F   0.500000000E+00
(PID.TID 0000.0001) EXF_SET_FLD: field "aqh", it=        -1, loading rec=    12
(PID.TID 0000.0001) EXF_SET_FLD:   from file: "EIG_spfh2m_plus_ECCO_v4r1_ctrl_2000"
(PID.TID 0000.0001)  EXF_INTERP_READ: opening file: EIG_spfh2m_plus_ECCO_v4r1_ctrl_2000
(PID.TID 0000.0001)  EXF_INTERP: file="EIG_spfh2m_plus_ECCO_v4r1_ctrl_2000", rec=    12 , x-Per,P.Sym=    T    T
(PID.TID 0000.0001)  S.edge (j=-1,0,1) : proc= 2.2 1.1 0.0, yIn=  -91.500000  -90.000000  -88.500000
(PID.TID 0000.0001)  N.edge (j=+0,+1,+2) proc= 0.0 1.1 2.2, yIn=   88.500000   90.000000   91.500000
(PID.TID 0000.0001) EXF_SET_FLD: field "aqh", it=        -1, loading rec=     1
(PID.TID 0000.0001) EXF_SET_FLD:   from file: "EIG_spfh2m_plus_ECCO_v4r1_ctrl_2000"
(PID.TID 0000.0001)  EXF_INTERP_READ: opening file: EIG_spfh2m_plus_ECCO_v4r1_ctrl_2000
(PID.TID 0000.0001)  EXF_INTERP: file="EIG_spfh2m_plus_ECCO_v4r1_ctrl_2000", rec=     1 , x-Per,P.Sym=    T    T
(PID.TID 0000.0001)  S.edge (j=-1,0,1) : proc= 2.2 1.1 0.0, yIn=  -91.500000  -90.000000  -88.500000
(PID.TID 0000.0001)  N.edge (j=+0,+1,+2) proc= 0.0 1.1 2.2, yIn=   88.500000   90.000000   91.500000
(PID.TID 0000.0001) EXF_SET_FLD: processing field "precip",  file: EIG_rain_plus_ECCO_v4r1_ctrl_2000
(PID.TID 0000.0001) EXF_SET_FLD:   myIter, count0, count1:        -1     12      1
(PID.TID 0000.0001) EXF_SET_FLD:   first, changed, fac:   T   F   0.500000000E+00
(PID.TID 0000.0001) EXF_SET_FLD: field "precip", it=        -1, loading rec=    12
(PID.TID 0000.0001) EXF_SET_FLD:   from file: "EIG_rain_plus_ECCO_v4r1_ctrl_2000"
(PID.TID 0000.0001)  EXF_INTERP_READ: opening file: EIG_rain_plus_ECCO_v4r1_ctrl_2000
(PID.TID 0000.0001)  EXF_INTERP: file="EIG_rain_plus_ECCO_v4r1_ctrl_2000", rec=    12 , x-Per,P.Sym=    T    T
(PID.TID 0000.0001)  S.edge (j=-1,0,1) : proc= 2.2 1.1 0.0, yIn=  -91.500000  -90.000000  -88.500000
(PID.TID 0000.0001)  N.edge (j=+0,+1,+2) proc= 0.0 1.1 2.2, yIn=   88.500000   90.000000   91.500000
(PID.TID 0000.0001) EXF_SET_FLD: field "precip", it=        -1, loading rec=     1
(PID.TID 0000.0001) EXF_SET_FLD:   from file: "EIG_rain_plus_ECCO_v4r1_ctrl_2000"
(PID.TID 0000.0001)  EXF_INTERP_READ: opening file: EIG_rain_plus_ECCO_v4r1_ctrl_2000
(PID.TID 0000.0001)  EXF_INTERP: file="EIG_rain_plus_ECCO_v4r1_ctrl_2000", rec=     1 , x-Per,P.Sym=    T    T
(PID.TID 0000.0001)  S.edge (j=-1,0,1) : proc= 2.2 1.1 0.0, yIn=  -91.500000  -90.000000  -88.500000
(PID.TID 0000.0001)  N.edge (j=+0,+1,+2) proc= 0.0 1.1 2.2, yIn=   88.500000   90.000000   91.500000
(PID.TID 0000.0001) EXF_SET_FLD: processing field "swdown",  file: EIG_dsw_plus_ECCO_v4r1_ctrl_2000
(PID.TID 0000.0001) EXF_SET_FLD:   myIter, count0, count1:        -1     12      1
(PID.TID 0000.0001) EXF_SET_FLD:   first, changed, fac:   T   F   0.500000000E+00
(PID.TID 0000.0001) EXF_SET_FLD: field "swdown", it=        -1, loading rec=    12
(PID.TID 0000.0001) EXF_SET_FLD:   from file: "EIG_dsw_plus_ECCO_v4r1_ctrl_2000"
(PID.TID 0000.0001)  EXF_INTERP_READ: opening file: EIG_dsw_plus_ECCO_v4r1_ctrl_2000
(PID.TID 0000.0001)  EXF_INTERP: file="EIG_dsw_plus_ECCO_v4r1_ctrl_2000", rec=    12 , x-Per,P.Sym=    T    T
(PID.TID 0000.0001)  S.edge (j=-1,0,1) : proc= 2.2 1.1 0.0, yIn=  -91.500000  -90.000000  -88.500000
(PID.TID 0000.0001)  N.edge (j=+0,+1,+2) proc= 0.0 1.1 2.2, yIn=   88.500000   90.000000   91.500000
(PID.TID 0000.0001) EXF_SET_FLD: field "swdown", it=        -1, loading rec=     1
(PID.TID 0000.0001) EXF_SET_FLD:   from file: "EIG_dsw_plus_ECCO_v4r1_ctrl_2000"
(PID.TID 0000.0001)  EXF_INTERP_READ: opening file: EIG_dsw_plus_ECCO_v4r1_ctrl_2000
(PID.TID 0000.0001)  EXF_INTERP: file="EIG_dsw_plus_ECCO_v4r1_ctrl_2000", rec=     1 , x-Per,P.Sym=    T    T
(PID.TID 0000.0001)  S.edge (j=-1,0,1) : proc= 2.2 1.1 0.0, yIn=  -91.500000  -90.000000  -88.500000
(PID.TID 0000.0001)  N.edge (j=+0,+1,+2) proc= 0.0 1.1 2.2, yIn=   88.500000   90.000000   91.500000
(PID.TID 0000.0001) EXF_SET_FLD: processing field "lwdown",  file: EIG_dlw_plus_ECCO_v4r1_ctrl_2000
(PID.TID 0000.0001) EXF_SET_FLD:   myIter, count0, count1:        -1     12      1
(PID.TID 0000.0001) EXF_SET_FLD:   first, changed, fac:   T   F   0.500000000E+00
(PID.TID 0000.0001) EXF_SET_FLD: field "lwdown", it=        -1, loading rec=    12
(PID.TID 0000.0001) EXF_SET_FLD:   from file: "EIG_dlw_plus_ECCO_v4r1_ctrl_2000"
(PID.TID 0000.0001)  EXF_INTERP_READ: opening file: EIG_dlw_plus_ECCO_v4r1_ctrl_2000
(PID.TID 0000.0001)  EXF_INTERP: file="EIG_dlw_plus_ECCO_v4r1_ctrl_2000", rec=    12 , x-Per,P.Sym=    T    T
(PID.TID 0000.0001)  S.edge (j=-1,0,1) : proc= 2.2 1.1 0.0, yIn=  -91.500000  -90.000000  -88.500000
(PID.TID 0000.0001)  N.edge (j=+0,+1,+2) proc= 0.0 1.1 2.2, yIn=   88.500000   90.000000   91.500000
(PID.TID 0000.0001) EXF_SET_FLD: field "lwdown", it=        -1, loading rec=     1
(PID.TID 0000.0001) EXF_SET_FLD:   from file: "EIG_dlw_plus_ECCO_v4r1_ctrl_2000"
(PID.TID 0000.0001)  EXF_INTERP_READ: opening file: EIG_dlw_plus_ECCO_v4r1_ctrl_2000
(PID.TID 0000.0001)  EXF_INTERP: file="EIG_dlw_plus_ECCO_v4r1_ctrl_2000", rec=     1 , x-Per,P.Sym=    T    T
(PID.TID 0000.0001)  S.edge (j=-1,0,1) : proc= 2.2 1.1 0.0, yIn=  -91.500000  -90.000000  -88.500000
(PID.TID 0000.0001)  N.edge (j=+0,+1,+2) proc= 0.0 1.1 2.2, yIn=   88.500000   90.000000   91.500000
(PID.TID 0000.0001) EXF_SET_FLD: processing field "runoff",  file: runoff-2d-Fekete-1deg-mon-V4-SMOOTH.bin
(PID.TID 0000.0001) EXF_SET_FLD:   myIter, count0, count1:        -1     12      1
(PID.TID 0000.0001) EXF_SET_FLD:   first, changed, fac:   T   F   0.500000000E+00
(PID.TID 0000.0001) EXF_SET_FLD: field "runoff", it=        -1, loading rec=    12
(PID.TID 0000.0001) EXF_SET_FLD:   from file: "runoff-2d-Fekete-1deg-mon-V4-SMOOTH.bin"
(PID.TID 0000.0001)  EXF_INTERP_READ: opening file: runoff-2d-Fekete-1deg-mon-V4-SMOOTH.bin
(PID.TID 0000.0001)  EXF_INTERP: file="runoff-2d-Fekete-1deg-mon-V4-SMOOTH.bin", rec=    12 , x-Per,P.Sym=    T    T
(PID.TID 0000.0001)  S.edge (j=-1,0,1) : proc= 2.2 1.1 0.0, yIn=  -91.500000  -90.000000  -88.500000
(PID.TID 0000.0001)  N.edge (j=+0,+1,+2) proc= 0.0 1.1 2.2, yIn=   88.500000   90.000000   91.500000
(PID.TID 0000.0001) EXF_SET_FLD: field "runoff", it=        -1, loading rec=     1
(PID.TID 0000.0001) EXF_SET_FLD:   from file: "runoff-2d-Fekete-1deg-mon-V4-SMOOTH.bin"
(PID.TID 0000.0001)  EXF_INTERP_READ: opening file: runoff-2d-Fekete-1deg-mon-V4-SMOOTH.bin
(PID.TID 0000.0001)  EXF_INTERP: file="runoff-2d-Fekete-1deg-mon-V4-SMOOTH.bin", rec=     1 , x-Per,P.Sym=    T    T
(PID.TID 0000.0001)  S.edge (j=-1,0,1) : proc= 2.2 1.1 0.0, yIn=  -91.500000  -90.000000  -88.500000
(PID.TID 0000.0001)  N.edge (j=+0,+1,+2) proc= 0.0 1.1 2.2, yIn=   88.500000   90.000000   91.500000
(PID.TID 0000.0001) // =======================================================
(PID.TID 0000.0001) // Begin MONITOR EXF statistics
(PID.TID 0000.0001) // =======================================================
(PID.TID 0000.0001) %MON exf_tsnumber                 =                    -1
(PID.TID 0000.0001) %MON exf_time_sec                 =  -9.0000000000000E+02
(PID.TID 0000.0001) %MON exf_ustress_max              =   1.3197150319256E-01
(PID.TID 0000.0001) %MON exf_ustress_min              =  -1.1241981062184E-01
(PID.TID 0000.0001) %MON exf_ustress_mean             =  -4.4180119380266E-03
(PID.TID 0000.0001) %MON exf_ustress_sd               =   4.0089270205977E-02
(PID.TID 0000.0001) %MON exf_ustress_del2             =   1.4491822243411E-04
(PID.TID 0000.0001) %MON exf_vstress_max              =   9.9475057744052E-02
(PID.TID 0000.0001) %MON exf_vstress_min              =  -1.0051745098143E-01
(PID.TID 0000.0001) %MON exf_vstress_mean             =  -3.5066816367686E-03
(PID.TID 0000.0001) %MON exf_vstress_sd               =   1.8016414682053E-02
(PID.TID 0000.0001) %MON exf_vstress_del2             =   9.7296041162761E-05
(PID.TID 0000.0001) %MON exf_hflux_max                =   4.1332097421966E+02
(PID.TID 0000.0001) %MON exf_hflux_min                =  -3.3217430683864E+02
(PID.TID 0000.0001) %MON exf_hflux_mean               =  -8.1859540885358E+01
(PID.TID 0000.0001) %MON exf_hflux_sd                 =   1.0068707423552E+02
(PID.TID 0000.0001) %MON exf_hflux_del2               =   7.3316923717300E-01
(PID.TID 0000.0001) %MON exf_sflux_max                =   8.5103649949442E-08
(PID.TID 0000.0001) %MON exf_sflux_min                =  -6.3499828181685E-07
(PID.TID 0000.0001) %MON exf_sflux_mean               =  -1.5667042388710E-08
(PID.TID 0000.0001) %MON exf_sflux_sd                 =   3.7495716069479E-08
(PID.TID 0000.0001) %MON exf_sflux_del2               =   3.5164741065783E-10
(PID.TID 0000.0001) %MON exf_uwind_max                =   9.5224857206284E+00
(PID.TID 0000.0001) %MON exf_uwind_min                =  -8.7611307694778E+00
(PID.TID 0000.0001) %MON exf_uwind_mean               =  -4.9431205154469E-01
(PID.TID 0000.0001) %MON exf_uwind_sd                 =   4.4179319085267E+00
(PID.TID 0000.0001) %MON exf_uwind_del2               =   2.1172851608928E-02
(PID.TID 0000.0001) %MON exf_vwind_max                =   8.7164818880075E+00
(PID.TID 0000.0001) %MON exf_vwind_min                =  -6.9944463716967E+00
(PID.TID 0000.0001) %MON exf_vwind_mean               =  -3.7872453115568E-01
(PID.TID 0000.0001) %MON exf_vwind_sd                 =   2.2080112107056E+00
(PID.TID 0000.0001) %MON exf_vwind_del2               =   1.4187763702737E-02
(PID.TID 0000.0001) %MON exf_wspeed_max               =   9.5380653617048E+00
(PID.TID 0000.0001) %MON exf_wspeed_min               =   4.6660499226386E-02
(PID.TID 0000.0001) %MON exf_wspeed_mean              =   4.4777651512225E+00
(PID.TID 0000.0001) %MON exf_wspeed_sd                =   2.1750475351768E+00
(PID.TID 0000.0001) %MON exf_wspeed_del2              =   2.6390569373174E-02
(PID.TID 0000.0001) %MON exf_atemp_max                =   3.0188411019333E+02
(PID.TID 0000.0001) %MON exf_atemp_min                =   2.4477540550809E+02
(PID.TID 0000.0001) %MON exf_atemp_mean               =   2.9041286683468E+02
(PID.TID 0000.0001) %MON exf_atemp_sd                 =   9.7907953297784E+00
(PID.TID 0000.0001) %MON exf_atemp_del2               =   9.0505580416294E-02
(PID.TID 0000.0001) %MON exf_aqh_max                  =   1.9838785819047E-02
(PID.TID 0000.0001) %MON exf_aqh_min                  =   3.5635560571023E-04
(PID.TID 0000.0001) %MON exf_aqh_mean                 =   1.1235130713023E-02
(PID.TID 0000.0001) %MON exf_aqh_sd                   =   5.1804447890857E-03
(PID.TID 0000.0001) %MON exf_aqh_del2                 =   5.8602317193635E-05
(PID.TID 0000.0001) %MON exf_lwflux_max               =   1.5496547424105E+02
(PID.TID 0000.0001) %MON exf_lwflux_min               =   4.3012168101765E+00
(PID.TID 0000.0001) %MON exf_lwflux_mean              =   4.1308763542327E+01
(PID.TID 0000.0001) %MON exf_lwflux_sd                =   1.3587283248759E+01
(PID.TID 0000.0001) %MON exf_lwflux_del2              =   1.9930757066374E-01
(PID.TID 0000.0001) %MON exf_evap_max                 =   8.5128523201826E-08
(PID.TID 0000.0001) %MON exf_evap_min                 =  -1.2832224145005E-08
(PID.TID 0000.0001) %MON exf_evap_mean                =   2.6031676896681E-08
(PID.TID 0000.0001) %MON exf_evap_sd                  =   1.7974662914332E-08
(PID.TID 0000.0001) %MON exf_evap_del2                =   1.6640093121465E-10
(PID.TID 0000.0001) %MON exf_precip_max               =   1.4863974505744E-07
(PID.TID 0000.0001) %MON exf_precip_min               =  -8.5454258814521E-09
(PID.TID 0000.0001) %MON exf_precip_mean              =   3.9997275821750E-08
(PID.TID 0000.0001) %MON exf_precip_sd                =   2.9094932092526E-08
(PID.TID 0000.0001) %MON exf_precip_del2              =   3.1034477850694E-10
(PID.TID 0000.0001) %MON exf_swflux_max               =   3.3121876763925E+01
(PID.TID 0000.0001) %MON exf_swflux_min               =  -3.5303847682555E+02
(PID.TID 0000.0001) %MON exf_swflux_mean              =  -1.9692612279934E+02
(PID.TID 0000.0001) %MON exf_swflux_sd                =   7.3608010845450E+01
(PID.TID 0000.0001) %MON exf_swflux_del2              =   9.3067975338874E-01
(PID.TID 0000.0001) %MON exf_swdown_max               =   3.8081123372912E+02
(PID.TID 0000.0001) %MON exf_swdown_min               =  -4.7316966805607E+01
(PID.TID 0000.0001) %MON exf_swdown_mean              =   2.1343149596385E+02
(PID.TID 0000.0001) %MON exf_swdown_sd                =   7.8896145517863E+01
(PID.TID 0000.0001) %MON exf_swdown_del2              =   1.0071708478324E+00
(PID.TID 0000.0001) %MON exf_lwdown_max               =   4.4360816286504E+02
(PID.TID 0000.0001) %MON exf_lwdown_min               =   1.5699785740674E+02
(PID.TID 0000.0001) %MON exf_lwdown_mean              =   3.6918898915757E+02
(PID.TID 0000.0001) %MON exf_lwdown_sd                =   5.1751594993112E+01
(PID.TID 0000.0001) %MON exf_lwdown_del2              =   1.5869276340559E+00
(PID.TID 0000.0001) %MON exf_runoff_max               =   5.5080651490888E-07
(PID.TID 0000.0001) %MON exf_runoff_min               =   0.0000000000000E+00
(PID.TID 0000.0001) %MON exf_runoff_mean              =   1.7014434636413E-09
(PID.TID 0000.0001) %MON exf_runoff_sd                =   1.1339133423345E-08
(PID.TID 0000.0001) %MON exf_runoff_del2              =   1.2648092288215E-10
(PID.TID 0000.0001) %MON exf_apco2_max                =   3.7073999010317E-04
(PID.TID 0000.0001) %MON exf_apco2_min                =   3.6819630804530E-04
(PID.TID 0000.0001) %MON exf_apco2_mean               =   3.6882166552950E-04
(PID.TID 0000.0001) %MON exf_apco2_sd                 =   5.2225728733331E-07
(PID.TID 0000.0001) %MON exf_apco2_del2               =   1.5223079604038E-06
(PID.TID 0000.0001) // =======================================================
(PID.TID 0000.0001) // End MONITOR EXF statistics
(PID.TID 0000.0001) // =======================================================
 QQ: pCO2 approximation method
 QQ first guess pH   8.0292507513154749        19.863307952880859        35.595417022705078        2.0850967787242780        2.1219974274019372E-004   1.6565208029770823E-003   2.3466719864609331     
 QQ: pCO2 approximation method
 QQ first guess pH   8.1331943691508499        17.787647247314453        34.775051116943359        2.0957547382148789        1.5838054574784585E-004   2.0948236983604762E-003   2.3967659829808952     
 QQ: pCO2 approximation method
 QQ first guess pH   8.0000000000000000        0.0000000000000000        0.0000000000000000        0.0000000000000000        0.0000000000000000        0.0000000000000000        0.0000000000000000     
 QQ: pCO2 approximation method
 QQ first guess pH   8.0000000000000000        0.0000000000000000        0.0000000000000000        0.0000000000000000        0.0000000000000000        0.0000000000000000        0.0000000000000000     
(PID.TID 0000.0001) // =======================================================
(PID.TID 0000.0001) // Field Current HEFFM    at iteration          0
(PID.TID 0000.0001) // CMIN =          1.000000000000000E+00
(PID.TID 0000.0001) // CMAX =          1.000000000000000E+00
(PID.TID 0000.0001) // CINT =          0.000000000000000E+00
(PID.TID 0000.0001) // SYMBOLS (CMIN->CMAX): -abcdefghijklmnopqrstuvwxyz+
(PID.TID 0000.0001) //                  0.0: .
(PID.TID 0000.0001) // RANGE I (Lo:Hi:Step):(    -3:   132:     1)
(PID.TID 0000.0001) // RANGE J (Lo:Hi:Step):(    68:    -3:    -1)
(PID.TID 0000.0001) // RANGE K (Lo:Hi:Step):(   1:   1:   1)
(PID.TID 0000.0001) // =======================================================
(PID.TID 0000.0001) // =======================================================
(PID.TID 0000.0001) // END OF FIELD                                          =
(PID.TID 0000.0001) // =======================================================
(PID.TID 0000.0001) 
(PID.TID 0000.0001) // =======================================================
(PID.TID 0000.0001) // Field Current seaiceMaskU at iteration          0
(PID.TID 0000.0001) // CMIN =          1.000000000000000E+00
(PID.TID 0000.0001) // CMAX =          1.000000000000000E+00
(PID.TID 0000.0001) // CINT =          0.000000000000000E+00
(PID.TID 0000.0001) // SYMBOLS (CMIN->CMAX): -abcdefghijklmnopqrstuvwxyz+
(PID.TID 0000.0001) //                  0.0: .
(PID.TID 0000.0001) // RANGE I (Lo:Hi:Step):(    -3:   132:     1)
(PID.TID 0000.0001) // RANGE J (Lo:Hi:Step):(    68:    -3:    -1)
(PID.TID 0000.0001) // RANGE K (Lo:Hi:Step):(   1:   1:   1)
(PID.TID 0000.0001) // =======================================================
(PID.TID 0000.0001) // =======================================================
(PID.TID 0000.0001) // END OF FIELD                                          =
(PID.TID 0000.0001) // =======================================================
(PID.TID 0000.0001) 
(PID.TID 0000.0001) // =======================================================
(PID.TID 0000.0001) // Field Current seaiceMaskV at iteration          0
(PID.TID 0000.0001) // CMIN =          1.000000000000000E+00
(PID.TID 0000.0001) // CMAX =          1.000000000000000E+00
(PID.TID 0000.0001) // CINT =          0.000000000000000E+00
(PID.TID 0000.0001) // SYMBOLS (CMIN->CMAX): -abcdefghijklmnopqrstuvwxyz+
(PID.TID 0000.0001) //                  0.0: .
(PID.TID 0000.0001) // RANGE I (Lo:Hi:Step):(    -3:   132:     1)
(PID.TID 0000.0001) // RANGE J (Lo:Hi:Step):(    68:    -3:    -1)
(PID.TID 0000.0001) // RANGE K (Lo:Hi:Step):(   1:   1:   1)
(PID.TID 0000.0001) // =======================================================
(PID.TID 0000.0001) // =======================================================
(PID.TID 0000.0001) // END OF FIELD                                          =
(PID.TID 0000.0001) // =======================================================
(PID.TID 0000.0001) 
(PID.TID 0000.0001)  MDS_READ_FIELD: opening global file: Heff.0005184000
(PID.TID 0000.0001)  MDS_READ_FIELD: opening global file: Area.0005184000
(PID.TID 0000.0001) // =======================================================
(PID.TID 0000.0001) // Model current state
(PID.TID 0000.0001) // =======================================================
(PID.TID 0000.0001) 
(PID.TID 0000.0001) // =======================================================
(PID.TID 0000.0001) // Begin MONITOR dynamic field statistics
(PID.TID 0000.0001) // =======================================================
(PID.TID 0000.0001) %MON time_tsnumber                =                     0
(PID.TID 0000.0001) %MON time_secondsf                =   0.0000000000000E+00
(PID.TID 0000.0001) %MON dynstat_eta_max              =   9.6649301052094E-01
(PID.TID 0000.0001) %MON dynstat_eta_min              =  -1.4782940149307E+00
(PID.TID 0000.0001) %MON dynstat_eta_mean             =   8.2173133355469E-11
(PID.TID 0000.0001) %MON dynstat_eta_sd               =   5.6496543245902E-01
(PID.TID 0000.0001) %MON dynstat_eta_del2             =   1.1653645959361E-03
(PID.TID 0000.0001) %MON dynstat_uvel_max             =   1.8991956114769E-01
(PID.TID 0000.0001) %MON dynstat_uvel_min             =  -2.3830120265484E-01
(PID.TID 0000.0001) %MON dynstat_uvel_mean            =   1.8631910434304E-03
(PID.TID 0000.0001) %MON dynstat_uvel_sd              =   1.3097544587911E-02
(PID.TID 0000.0001) %MON dynstat_uvel_del2            =   4.9141243639480E-05
(PID.TID 0000.0001) %MON dynstat_vvel_max             =   1.4902608096600E-01
(PID.TID 0000.0001) %MON dynstat_vvel_min             =  -2.1740870177746E-01
(PID.TID 0000.0001) %MON dynstat_vvel_mean            =  -1.6712179519139E-04
(PID.TID 0000.0001) %MON dynstat_vvel_sd              =   7.3032187183207E-03
(PID.TID 0000.0001) %MON dynstat_vvel_del2            =   3.8048381037259E-05
(PID.TID 0000.0001) %MON dynstat_wvel_max             =   5.2278893557483E-05
(PID.TID 0000.0001) %MON dynstat_wvel_min             =  -5.4363646963699E-05
(PID.TID 0000.0001) %MON dynstat_wvel_mean            =  -3.1461805796597E-23
(PID.TID 0000.0001) %MON dynstat_wvel_sd              =   2.6044092398924E-06
(PID.TID 0000.0001) %MON dynstat_wvel_del2            =   1.7768952245668E-08
(PID.TID 0000.0001) %MON dynstat_theta_max            =   3.0246498107910E+01
(PID.TID 0000.0001) %MON dynstat_theta_min            =  -3.4675359725952E+00
(PID.TID 0000.0001) %MON dynstat_theta_mean           =   3.8021139721315E+00
(PID.TID 0000.0001) %MON dynstat_theta_sd             =   4.5122610081527E+00
(PID.TID 0000.0001) %MON dynstat_theta_del2           =   2.5990297133673E-03
(PID.TID 0000.0001) %MON dynstat_salt_max             =   3.7556854248047E+01
(PID.TID 0000.0001) %MON dynstat_salt_min             =   3.1484590530396E+01
(PID.TID 0000.0001) %MON dynstat_salt_mean            =   3.4614647723372E+01
(PID.TID 0000.0001) %MON dynstat_salt_sd              =   3.1408724491432E-01
(PID.TID 0000.0001) %MON dynstat_salt_del2            =   4.0546884730967E-04
(PID.TID 0000.0001) %MON forcing_qnet_max             =   4.1332097421966E+02
(PID.TID 0000.0001) %MON forcing_qnet_min             =  -3.3217430683864E+02
(PID.TID 0000.0001) %MON forcing_qnet_mean            =  -8.1859540885358E+01
(PID.TID 0000.0001) %MON forcing_qnet_sd              =   1.0068707423552E+02
(PID.TID 0000.0001) %MON forcing_qnet_del2            =   4.9575320907529E-01
(PID.TID 0000.0001) %MON forcing_qsw_max              =   3.3121876763925E+01
(PID.TID 0000.0001) %MON forcing_qsw_min              =  -3.5303847682555E+02
(PID.TID 0000.0001) %MON forcing_qsw_mean             =  -1.9692612279934E+02
(PID.TID 0000.0001) %MON forcing_qsw_sd               =   7.3608010845450E+01
(PID.TID 0000.0001) %MON forcing_qsw_del2             =   1.6035152947671E-01
(PID.TID 0000.0001) %MON forcing_empmr_max            =   8.5103649949442E-05
(PID.TID 0000.0001) %MON forcing_empmr_min            =  -6.3499828181685E-04
(PID.TID 0000.0001) %MON forcing_empmr_mean           =  -1.5667042388710E-05
(PID.TID 0000.0001) %MON forcing_empmr_sd             =   3.7495716069479E-05
(PID.TID 0000.0001) %MON forcing_empmr_del2           =   3.0808445132324E-07
(PID.TID 0000.0001) %MON forcing_fu_max               =   1.3089536730952E-01
(PID.TID 0000.0001) %MON forcing_fu_min               =  -1.1231770189011E-01
(PID.TID 0000.0001) %MON forcing_fu_mean              =  -4.3661255277412E-03
(PID.TID 0000.0001) %MON forcing_fu_sd                =   4.0509195183976E-02
(PID.TID 0000.0001) %MON forcing_fu_del2              =   1.3809300796661E-04
(PID.TID 0000.0001) %MON forcing_fv_max               =   9.4384621287737E-02
(PID.TID 0000.0001) %MON forcing_fv_min               =  -8.4481130405443E-02
(PID.TID 0000.0001) %MON forcing_fv_mean              =  -3.3650015261543E-03
(PID.TID 0000.0001) %MON forcing_fv_sd                =   1.7596449440527E-02
(PID.TID 0000.0001) %MON forcing_fv_del2              =   7.7500057286326E-05
(PID.TID 0000.0001) %MON trAdv_CFL_u_max              =   0.0000000000000E+00
(PID.TID 0000.0001) %MON trAdv_CFL_v_max              =   0.0000000000000E+00
(PID.TID 0000.0001) %MON trAdv_CFL_w_max              =   0.0000000000000E+00
(PID.TID 0000.0001) %MON advcfl_uvel_max              =   6.9523385712875E-04
(PID.TID 0000.0001) %MON advcfl_vvel_max              =   6.2576331761465E-04
(PID.TID 0000.0001) %MON advcfl_wvel_max              =   2.6740066469077E-04
(PID.TID 0000.0001) %MON advcfl_W_hf_max              =   3.2088079762893E-04
(PID.TID 0000.0001) %MON pe_b_mean                    =   4.1138403908566E-04
(PID.TID 0000.0001) %MON ke_max                       =   3.1499048019696E-02
(PID.TID 0000.0001) %MON ke_mean                      =   1.0574476462810E-04
(PID.TID 0000.0001) %MON ke_vol                       =   1.2571476858570E+18
(PID.TID 0000.0001) %MON vort_r_min                   =  -9.2200320971920E-07
(PID.TID 0000.0001) %MON vort_r_max                   =   9.8870203226493E-07
(PID.TID 0000.0001) %MON vort_a_mean                  =  -2.4002453570026E-05
(PID.TID 0000.0001) %MON vort_a_sd                    =   7.3138176910932E-05
(PID.TID 0000.0001) %MON vort_p_mean                  =  -2.8585773838204E-05
(PID.TID 0000.0001) %MON vort_p_sd                    =   1.1453377537423E-04
(PID.TID 0000.0001) %MON surfExpan_theta_mean         =  -2.2011579959013E-07
(PID.TID 0000.0001) %MON surfExpan_salt_mean          =   2.1557167979197E-08
(PID.TID 0000.0001) // =======================================================
(PID.TID 0000.0001) // End MONITOR dynamic field statistics
(PID.TID 0000.0001) // =======================================================
(PID.TID 0000.0001)  MDS_WRITE_FIELD: it,rec,kS,kL,kH=       0     1  15   1  15 file=U.0000000000
(PID.TID 0000.0001)  MDS_WRITE_FIELD: it,rec,kS,kL,kH=       0     1  15   1  15 file=V.0000000000
(PID.TID 0000.0001)  MDS_WRITE_FIELD: it,rec,kS,kL,kH=       0     1  15   1  15 file=T.0000000000
(PID.TID 0000.0001)  MDS_WRITE_FIELD: it,rec,kS,kL,kH=       0     1  15   1  15 file=S.0000000000
(PID.TID 0000.0001)  MDS_WRITE_FIELD: it,rec,kS,kL,kH=       0     1   1   1   1 file=Eta.0000000000
(PID.TID 0000.0001)  MDS_WRITE_FIELD: it,rec,kS,kL,kH=       0     1  15   1  15 file=W.0000000000
(PID.TID 0000.0001) // =======================================================
(PID.TID 0000.0001) // Begin MONITOR SEAICE statistics
(PID.TID 0000.0001) // =======================================================
(PID.TID 0000.0001) %MON seaice_tsnumber              =                     0
(PID.TID 0000.0001) %MON seaice_time_sec              =   0.0000000000000E+00
(PID.TID 0000.0001) %MON seaice_uice_max              =   0.0000000000000E+00
(PID.TID 0000.0001) %MON seaice_uice_min              =   0.0000000000000E+00
(PID.TID 0000.0001) %MON seaice_uice_mean             =   0.0000000000000E+00
(PID.TID 0000.0001) %MON seaice_uice_sd               =   0.0000000000000E+00
(PID.TID 0000.0001) %MON seaice_uice_del2             =   0.0000000000000E+00
(PID.TID 0000.0001) %MON seaice_vice_max              =   0.0000000000000E+00
(PID.TID 0000.0001) %MON seaice_vice_min              =   0.0000000000000E+00
(PID.TID 0000.0001) %MON seaice_vice_mean             =   0.0000000000000E+00
(PID.TID 0000.0001) %MON seaice_vice_sd               =   0.0000000000000E+00
(PID.TID 0000.0001) %MON seaice_vice_del2             =   0.0000000000000E+00
(PID.TID 0000.0001) %MON seaice_area_max              =   1.0000000000000E+00
(PID.TID 0000.0001) %MON seaice_area_min              =   0.0000000000000E+00
(PID.TID 0000.0001) %MON seaice_area_mean             =   4.9479677100906E-03
(PID.TID 0000.0001) %MON seaice_area_sd               =   7.0167551800177E-02
(PID.TID 0000.0001) %MON seaice_area_del2             =   2.0486695703045E-03
(PID.TID 0000.0001) %MON seaice_heff_max              =   1.0000000000000E+00
(PID.TID 0000.0001) %MON seaice_heff_min              =   0.0000000000000E+00
(PID.TID 0000.0001) %MON seaice_heff_mean             =   4.9479677100906E-03
(PID.TID 0000.0001) %MON seaice_heff_sd               =   7.0167551800177E-02
(PID.TID 0000.0001) %MON seaice_heff_del2             =   2.0486695703045E-03
(PID.TID 0000.0001) %MON seaice_hsnow_max             =   2.0000000000000E-01
(PID.TID 0000.0001) %MON seaice_hsnow_min             =   0.0000000000000E+00
(PID.TID 0000.0001) %MON seaice_hsnow_mean            =   9.8959354201811E-04
(PID.TID 0000.0001) %MON seaice_hsnow_sd              =   1.4033510360035E-02
(PID.TID 0000.0001) %MON seaice_hsnow_del2            =   4.0973391406091E-04
(PID.TID 0000.0001) // =======================================================
(PID.TID 0000.0001) // End MONITOR SEAICE statistics
(PID.TID 0000.0001) // =======================================================
(PID.TID 0000.0001)  MDS_WRITE_FIELD: it,rec,kS,kL,kH=       0     1  15   1  15 file=PTRACER01.0000000000
(PID.TID 0000.0001)  MDS_WRITE_FIELD: it,rec,kS,kL,kH=       0     1  15   1  15 file=PTRACER02.0000000000
(PID.TID 0000.0001)  MDS_WRITE_FIELD: it,rec,kS,kL,kH=       0     1  15   1  15 file=PTRACER03.0000000000
(PID.TID 0000.0001)  MDS_WRITE_FIELD: it,rec,kS,kL,kH=       0     1  15   1  15 file=PTRACER04.0000000000
(PID.TID 0000.0001)  MDS_WRITE_FIELD: it,rec,kS,kL,kH=       0     1  15   1  15 file=PTRACER05.0000000000
(PID.TID 0000.0001)  MDS_WRITE_FIELD: it,rec,kS,kL,kH=       0     1  15   1  15 file=PTRACER06.0000000000
(PID.TID 0000.0001)  MDS_WRITE_FIELD: it,rec,kS,kL,kH=       0     1  15   1  15 file=PTRACER07.0000000000
(PID.TID 0000.0001)  MDS_WRITE_FIELD: it,rec,kS,kL,kH=       0     1  15   1  15 file=PTRACER08.0000000000
(PID.TID 0000.0001)  MDS_WRITE_FIELD: it,rec,kS,kL,kH=       0     1  15   1  15 file=PTRACER09.0000000000
(PID.TID 0000.0001)  MDS_WRITE_FIELD: it,rec,kS,kL,kH=       0     1  15   1  15 file=PTRACER10.0000000000
(PID.TID 0000.0001)  MDS_WRITE_FIELD: it,rec,kS,kL,kH=       0     1  15   1  15 file=PTRACER11.0000000000
(PID.TID 0000.0001)  MDS_WRITE_FIELD: it,rec,kS,kL,kH=       0     1  15   1  15 file=PTRACER12.0000000000
(PID.TID 0000.0001)  MDS_WRITE_FIELD: it,rec,kS,kL,kH=       0     1  15   1  15 file=PTRACER13.0000000000
(PID.TID 0000.0001)  MDS_WRITE_FIELD: it,rec,kS,kL,kH=       0     1  15   1  15 file=PTRACER14.0000000000
(PID.TID 0000.0001)  MDS_WRITE_FIELD: it,rec,kS,kL,kH=       0     1  15   1  15 file=PTRACER15.0000000000
(PID.TID 0000.0001)  MDS_WRITE_FIELD: it,rec,kS,kL,kH=       0     1  15   1  15 file=PTRACER16.0000000000
(PID.TID 0000.0001)  MDS_WRITE_FIELD: it,rec,kS,kL,kH=       0     1  15   1  15 file=PTRACER17.0000000000
(PID.TID 0000.0001)  MDS_WRITE_FIELD: it,rec,kS,kL,kH=       0     1  15   1  15 file=PTRACER18.0000000000
(PID.TID 0000.0001)  MDS_WRITE_FIELD: it,rec,kS,kL,kH=       0     1  15   1  15 file=PTRACER19.0000000000
(PID.TID 0000.0001)  MDS_WRITE_FIELD: it,rec,kS,kL,kH=       0     1  15   1  15 file=PTRACER20.0000000000
(PID.TID 0000.0001)  MDS_WRITE_FIELD: it,rec,kS,kL,kH=       0     1  15   1  15 file=PTRACER21.0000000000
(PID.TID 0000.0001)  MDS_WRITE_FIELD: it,rec,kS,kL,kH=       0     1  15   1  15 file=PTRACER22.0000000000
(PID.TID 0000.0001)  MDS_WRITE_FIELD: it,rec,kS,kL,kH=       0     1  15   1  15 file=PTRACER23.0000000000
(PID.TID 0000.0001)  MDS_WRITE_FIELD: it,rec,kS,kL,kH=       0     1  15   1  15 file=PTRACER24.0000000000
(PID.TID 0000.0001)  MDS_WRITE_FIELD: it,rec,kS,kL,kH=       0     1  15   1  15 file=PTRACER25.0000000000
(PID.TID 0000.0001)  MDS_WRITE_FIELD: it,rec,kS,kL,kH=       0     1  15   1  15 file=PTRACER26.0000000000
(PID.TID 0000.0001)  MDS_WRITE_FIELD: it,rec,kS,kL,kH=       0     1  15   1  15 file=PTRACER27.0000000000
(PID.TID 0000.0001)  MDS_WRITE_FIELD: it,rec,kS,kL,kH=       0     1  15   1  15 file=PTRACER28.0000000000
(PID.TID 0000.0001)  MDS_WRITE_FIELD: it,rec,kS,kL,kH=       0     1  15   1  15 file=PTRACER29.0000000000
(PID.TID 0000.0001)  MDS_WRITE_FIELD: it,rec,kS,kL,kH=       0     1  15   1  15 file=PTRACER30.0000000000
(PID.TID 0000.0001)  MDS_WRITE_FIELD: it,rec,kS,kL,kH=       0     1  15   1  15 file=PTRACER31.0000000000
(PID.TID 0000.0001)  MDS_WRITE_FIELD: it,rec,kS,kL,kH=       0     1  15   1  15 file=PTRACER32.0000000000
(PID.TID 0000.0001)  MDS_WRITE_FIELD: it,rec,kS,kL,kH=       0     1  15   1  15 file=PTRACER33.0000000000
(PID.TID 0000.0001)  MDS_WRITE_FIELD: it,rec,kS,kL,kH=       0     1  15   1  15 file=PTRACER34.0000000000
(PID.TID 0000.0001)  MDS_WRITE_FIELD: it,rec,kS,kL,kH=       0     1  15   1  15 file=PTRACER35.0000000000
(PID.TID 0000.0001)  MDS_WRITE_FIELD: it,rec,kS,kL,kH=       0     1  15   1  15 file=PTRACER36.0000000000
(PID.TID 0000.0001)  MDS_WRITE_FIELD: it,rec,kS,kL,kH=       0     1  15   1  15 file=PTRACER37.0000000000
(PID.TID 0000.0001)  MDS_WRITE_FIELD: it,rec,kS,kL,kH=       0     1  15   1  15 file=PTRACER38.0000000000
(PID.TID 0000.0001)  MDS_WRITE_FIELD: it,rec,kS,kL,kH=       0     1  15   1  15 file=PTRACER39.0000000000
(PID.TID 0000.0001) // =======================================================
(PID.TID 0000.0001) // Begin MONITOR ptracer field statistics
(PID.TID 0000.0001) // =======================================================
(PID.TID 0000.0001) %MON trcstat_ptracer01_max        =   3.5229196548462E+00
(PID.TID 0000.0001) %MON trcstat_ptracer01_min        =  -2.8360757231712E-01
(PID.TID 0000.0001) %MON trcstat_ptracer01_mean       =   2.1995426720630E+00
(PID.TID 0000.0001) %MON trcstat_ptracer01_sd         =   5.6172206779541E-01
(PID.TID 0000.0001) %MON trcstat_ptracer01_del2       =   7.6358567629222E-04
(PID.TID 0000.0001) %MON trcstat_ptracer02_max        =   4.8724197387695E+01
(PID.TID 0000.0001) %MON trcstat_ptracer02_min        =  -4.5802021026611E+00
(PID.TID 0000.0001) %MON trcstat_ptracer02_mean       =   3.1443343077184E+01
(PID.TID 0000.0001) %MON trcstat_ptracer02_sd         =   7.7612101757936E+00
(PID.TID 0000.0001) %MON trcstat_ptracer02_del2       =   1.1374839553416E-02
(PID.TID 0000.0001) %MON trcstat_ptracer03_max        =   1.2116185389459E-03
(PID.TID 0000.0001) %MON trcstat_ptracer03_min        =  -1.3396530994214E-04
(PID.TID 0000.0001) %MON trcstat_ptracer03_mean       =   5.7798799256683E-04
(PID.TID 0000.0001) %MON trcstat_ptracer03_sd         =   1.2499768072054E-04
(PID.TID 0000.0001) %MON trcstat_ptracer03_del2       =   5.1619821446680E-07
(PID.TID 0000.0001) %MON trcstat_ptracer04_max        =   1.9892660522461E+02
(PID.TID 0000.0001) %MON trcstat_ptracer04_min        =  -2.5404855728149E+01
(PID.TID 0000.0001) %MON trcstat_ptracer04_mean       =   9.1188440437787E+01
(PID.TID 0000.0001) %MON trcstat_ptracer04_sd         =   4.6076027207556E+01
(PID.TID 0000.0001) %MON trcstat_ptracer04_del2       =   3.4883946530558E-02
(PID.TID 0000.0001) %MON trcstat_ptracer05_max        =   5.6646049022675E-01
(PID.TID 0000.0001) %MON trcstat_ptracer05_min        =  -1.8249465152621E-02
(PID.TID 0000.0001) %MON trcstat_ptracer05_mean       =   2.0585435021751E-03
(PID.TID 0000.0001) %MON trcstat_ptracer05_sd         =   1.7305598841402E-02
(PID.TID 0000.0001) %MON trcstat_ptracer05_del2       =   1.0934338403462E-04
(PID.TID 0000.0001) %MON trcstat_ptracer06_max        =   9.0633678436279E+00
(PID.TID 0000.0001) %MON trcstat_ptracer06_min        =  -2.9199144244194E-01
(PID.TID 0000.0001) %MON trcstat_ptracer06_mean       =   3.2936696034801E-02
(PID.TID 0000.0001) %MON trcstat_ptracer06_sd         =   2.7688958146244E-01
(PID.TID 0000.0001) %MON trcstat_ptracer06_del2       =   1.7494941445539E-03
(PID.TID 0000.0001) %MON trcstat_ptracer07_max        =   5.6646048324183E-04
(PID.TID 0000.0001) %MON trcstat_ptracer07_min        =  -1.8249465938425E-05
(PID.TID 0000.0001) %MON trcstat_ptracer07_mean       =   2.0585435007488E-06
(PID.TID 0000.0001) %MON trcstat_ptracer07_sd         =   1.7305598812680E-05
(PID.TID 0000.0001) %MON trcstat_ptracer07_del2       =   1.0934338427695E-07
(PID.TID 0000.0001) %MON trcstat_ptracer08_max        =   5.4988380521536E-02
(PID.TID 0000.0001) %MON trcstat_ptracer08_min        =  -4.0826639160514E-03
(PID.TID 0000.0001) %MON trcstat_ptracer08_mean       =   3.9177061484206E-05
(PID.TID 0000.0001) %MON trcstat_ptracer08_sd         =   7.8379124350925E-04
(PID.TID 0000.0001) %MON trcstat_ptracer08_del2       =   7.8994917910409E-06
(PID.TID 0000.0001) %MON trcstat_ptracer09_max        =   8.7981408834457E-01
(PID.TID 0000.0001) %MON trcstat_ptracer09_min        =  -6.5322622656822E-02
(PID.TID 0000.0001) %MON trcstat_ptracer09_mean       =   6.2683298375029E-04
(PID.TID 0000.0001) %MON trcstat_ptracer09_sd         =   1.2540659896149E-02
(PID.TID 0000.0001) %MON trcstat_ptracer09_del2       =   1.2639186865668E-04
(PID.TID 0000.0001) %MON trcstat_ptracer10_max        =   5.4988380725263E-05
(PID.TID 0000.0001) %MON trcstat_ptracer10_min        =  -4.0826639633451E-06
(PID.TID 0000.0001) %MON trcstat_ptracer10_mean       =   3.9177061544114E-08
(PID.TID 0000.0001) %MON trcstat_ptracer10_sd         =   7.8379124669768E-07
(PID.TID 0000.0001) %MON trcstat_ptracer10_del2       =   7.8994919515966E-09
(PID.TID 0000.0001) %MON trcstat_ptracer11_max        =   1.9122276455164E-02
(PID.TID 0000.0001) %MON trcstat_ptracer11_min        =  -1.2039567809552E-03
(PID.TID 0000.0001) %MON trcstat_ptracer11_mean       =   6.9561566454934E-06
(PID.TID 0000.0001) %MON trcstat_ptracer11_sd         =   1.9471274298277E-04
(PID.TID 0000.0001) %MON trcstat_ptracer11_del2       =   2.3124805992678E-06
(PID.TID 0000.0001) %MON trcstat_ptracer12_max        =   1.4593724906445E-01
(PID.TID 0000.0001) %MON trcstat_ptracer12_min        =  -1.2623217888176E-02
(PID.TID 0000.0001) %MON trcstat_ptracer12_mean       =   7.0244010621016E-05
(PID.TID 0000.0001) %MON trcstat_ptracer12_sd         =   1.7001823164344E-03
(PID.TID 0000.0001) %MON trcstat_ptracer12_del2       =   2.1201578445403E-05
(PID.TID 0000.0001) %MON trcstat_ptracer13_max        =   2.3349959850311E+00
(PID.TID 0000.0001) %MON trcstat_ptracer13_min        =  -2.0197148621082E-01
(PID.TID 0000.0001) %MON trcstat_ptracer13_mean       =   1.1239041699409E-03
(PID.TID 0000.0001) %MON trcstat_ptracer13_sd         =   2.7202917062951E-02
(PID.TID 0000.0001) %MON trcstat_ptracer13_del2       =   3.3922525512646E-04
(PID.TID 0000.0001) %MON trcstat_ptracer14_max        =   1.4593725791201E-04
(PID.TID 0000.0001) %MON trcstat_ptracer14_min        =  -1.2623218026420E-05
(PID.TID 0000.0001) %MON trcstat_ptracer14_mean       =   7.0244010879857E-08
(PID.TID 0000.0001) %MON trcstat_ptracer14_sd         =   1.7001823343632E-06
(PID.TID 0000.0001) %MON trcstat_ptracer14_del2       =   2.1201578640309E-08
(PID.TID 0000.0001) %MON trcstat_ptracer15_max        =   9.2188602685928E-01
(PID.TID 0000.0001) %MON trcstat_ptracer15_min        =  -3.7259250879288E-02
(PID.TID 0000.0001) %MON trcstat_ptracer15_mean       =   4.1797059322120E-04
(PID.TID 0000.0001) %MON trcstat_ptracer15_sd         =   9.9784028011748E-03
(PID.TID 0000.0001) %MON trcstat_ptracer15_del2       =   1.4117277282826E-04
(PID.TID 0000.0001) %MON trcstat_ptracer16_max        =   2.2865986824036E-01
(PID.TID 0000.0001) %MON trcstat_ptracer16_min        =  -4.9364985898137E-03
(PID.TID 0000.0001) %MON trcstat_ptracer16_mean       =   6.2443685810774E-04
(PID.TID 0000.0001) %MON trcstat_ptracer16_sd         =   1.7433367102612E-03
(PID.TID 0000.0001) %MON trcstat_ptracer16_del2       =   1.8789980318630E-05
(PID.TID 0000.0001) %MON trcstat_ptracer17_max        =   3.6585578918457E+00
(PID.TID 0000.0001) %MON trcstat_ptracer17_min        =  -7.8983977437019E-02
(PID.TID 0000.0001) %MON trcstat_ptracer17_mean       =   9.9909897301856E-03
(PID.TID 0000.0001) %MON trcstat_ptracer17_sd         =   2.7893387364772E-02
(PID.TID 0000.0001) %MON trcstat_ptracer17_del2       =   3.0063968509586E-04
(PID.TID 0000.0001) %MON trcstat_ptracer18_max        =   2.2865986102261E-04
(PID.TID 0000.0001) %MON trcstat_ptracer18_min        =  -4.9364984988642E-06
(PID.TID 0000.0001) %MON trcstat_ptracer18_mean       =   6.2443685781488E-07
(PID.TID 0000.0001) %MON trcstat_ptracer18_sd         =   1.7433366956728E-06
(PID.TID 0000.0001) %MON trcstat_ptracer18_del2       =   1.8789979940895E-08
(PID.TID 0000.0001) %MON trcstat_ptracer19_max        =   1.9613132476807E+01
(PID.TID 0000.0001) %MON trcstat_ptracer19_min        =  -2.9008206725121E-01
(PID.TID 0000.0001) %MON trcstat_ptracer19_mean       =   1.3464830099821E-01
(PID.TID 0000.0001) %MON trcstat_ptracer19_sd         =   3.4288583976070E-01
(PID.TID 0000.0001) %MON trcstat_ptracer19_del2       =   2.0681747772280E-03
(PID.TID 0000.0001) %MON trcstat_ptracer20_max        =   3.2740426063538E-01
(PID.TID 0000.0001) %MON trcstat_ptracer20_min        =  -2.8775526210666E-02
(PID.TID 0000.0001) %MON trcstat_ptracer20_mean       =   5.1210045217490E-04
(PID.TID 0000.0001) %MON trcstat_ptracer20_sd         =   5.8934381022573E-03
(PID.TID 0000.0001) %MON trcstat_ptracer20_del2       =   6.6325253238969E-05
(PID.TID 0000.0001) %MON trcstat_ptracer21_max        =   8.5343557596207E-01
(PID.TID 0000.0001) %MON trcstat_ptracer21_min        =  -1.2487889826298E-01
(PID.TID 0000.0001) %MON trcstat_ptracer21_mean       =   3.2443761146940E-03
(PID.TID 0000.0001) %MON trcstat_ptracer21_sd         =   2.2991964911101E-02
(PID.TID 0000.0001) %MON trcstat_ptracer21_del2       =   2.1401361056552E-04
(PID.TID 0000.0001) %MON trcstat_ptracer22_max        =   1.7381186783314E-01
(PID.TID 0000.0001) %MON trcstat_ptracer22_min        =  -5.0798974931240E-02
(PID.TID 0000.0001) %MON trcstat_ptracer22_mean       =   6.9377345086026E-05
(PID.TID 0000.0001) %MON trcstat_ptracer22_sd         =   1.9276878652840E-03
(PID.TID 0000.0001) %MON trcstat_ptracer22_del2       =   4.2878588399884E-05
(PID.TID 0000.0001) %MON trcstat_ptracer23_max        =   1.0333210974932E-01
(PID.TID 0000.0001) %MON trcstat_ptracer23_min        =  -2.9829729348421E-02
(PID.TID 0000.0001) %MON trcstat_ptracer23_mean       =   3.2166495236213E-05
(PID.TID 0000.0001) %MON trcstat_ptracer23_sd         =   7.7916241514088E-04
(PID.TID 0000.0001) %MON trcstat_ptracer23_del2       =   2.0302625168467E-05
(PID.TID 0000.0001) %MON trcstat_ptracer24_max        =   1.4173996448517E-01
(PID.TID 0000.0001) %MON trcstat_ptracer24_min        =  -2.4599127471447E-02
(PID.TID 0000.0001) %MON trcstat_ptracer24_mean       =   3.2599635196138E-05
(PID.TID 0000.0001) %MON trcstat_ptracer24_sd         =   7.2058331723313E-04
(PID.TID 0000.0001) %MON trcstat_ptracer24_del2       =   1.5027634750676E-05
(PID.TID 0000.0001) %MON trcstat_ptracer25_max        =   2.2109055425972E-03
(PID.TID 0000.0001) %MON trcstat_ptracer25_min        =  -7.3876377427951E-04
(PID.TID 0000.0001) %MON trcstat_ptracer25_mean       =   1.2634499379577E-07
(PID.TID 0000.0001) %MON trcstat_ptracer25_sd         =   1.4915071043241E-05
(PID.TID 0000.0001) %MON trcstat_ptracer25_del2       =   1.9782923802765E-07
(PID.TID 0000.0001) %MON trcstat_ptracer26_max        =   2.6482807472348E-02
(PID.TID 0000.0001) %MON trcstat_ptracer26_min        =  -2.0302329212427E-03
(PID.TID 0000.0001) %MON trcstat_ptracer26_mean       =   6.9480133270492E-05
(PID.TID 0000.0001) %MON trcstat_ptracer26_sd         =   7.7096335468785E-04
(PID.TID 0000.0001) %MON trcstat_ptracer26_del2       =   5.1700293515160E-06
(PID.TID 0000.0001) %MON trcstat_ptracer27_max        =   6.3428926467896E+00
(PID.TID 0000.0001) %MON trcstat_ptracer27_min        =  -3.0479384958744E+00
(PID.TID 0000.0001) %MON trcstat_ptracer27_mean       =   1.4919594308002E-03
(PID.TID 0000.0001) %MON trcstat_ptracer27_sd         =   4.9690044122027E-02
(PID.TID 0000.0001) %MON trcstat_ptracer27_del2       =   1.2817711921402E-03
(PID.TID 0000.0001) %MON trcstat_ptracer28_max        =   3.3898406028748E+00
(PID.TID 0000.0001) %MON trcstat_ptracer28_min        =  -1.7897837609053E+00
(PID.TID 0000.0001) %MON trcstat_ptracer28_mean       =   7.2809159801066E-04
(PID.TID 0000.0001) %MON trcstat_ptracer28_sd         =   2.0328826532236E-02
(PID.TID 0000.0001) %MON trcstat_ptracer28_del2       =   6.0288526792945E-04
(PID.TID 0000.0001) %MON trcstat_ptracer29_max        =   8.9949494600296E-01
(PID.TID 0000.0001) %MON trcstat_ptracer29_min        =  -5.9037905931473E-01
(PID.TID 0000.0001) %MON trcstat_ptracer29_mean       =   1.8092828378725E-04
(PID.TID 0000.0001) %MON trcstat_ptracer29_sd         =   5.1993371995656E-03
(PID.TID 0000.0001) %MON trcstat_ptracer29_del2       =   1.2760167162984E-04
(PID.TID 0000.0001) %MON trcstat_ptracer30_max        =   7.1134227328002E-03
(PID.TID 0000.0001) %MON trcstat_ptracer30_min        =  -1.7730330582708E-02
(PID.TID 0000.0001) %MON trcstat_ptracer30_mean       =  -2.8917145728959E-07
(PID.TID 0000.0001) %MON trcstat_ptracer30_sd         =   9.3529563546454E-05
(PID.TID 0000.0001) %MON trcstat_ptracer30_del2       =   1.4313782923395E-06
(PID.TID 0000.0001) %MON trcstat_ptracer31_max        =   3.8451057672501E-01
(PID.TID 0000.0001) %MON trcstat_ptracer31_min        =  -4.8725590109825E-02
(PID.TID 0000.0001) %MON trcstat_ptracer31_mean       =   6.8511596075967E-04
(PID.TID 0000.0001) %MON trcstat_ptracer31_sd         =   8.5495060945817E-03
(PID.TID 0000.0001) %MON trcstat_ptracer31_del2       =   7.1314363114059E-05
(PID.TID 0000.0001) %MON trcstat_ptracer32_max        =   2.5072929687500E+03
(PID.TID 0000.0001) %MON trcstat_ptracer32_min        =   1.5723034667969E+03
(PID.TID 0000.0001) %MON trcstat_ptracer32_mean       =   2.3412051324633E+03
(PID.TID 0000.0001) %MON trcstat_ptracer32_sd         =   7.0764803027990E+01
(PID.TID 0000.0001) %MON trcstat_ptracer32_del2       =   7.6401444248467E-02
(PID.TID 0000.0001) %MON trcstat_ptracer33_max        =   1.0072519683838E+02
(PID.TID 0000.0001) %MON trcstat_ptracer33_min        =  -4.4873533248901E+00
(PID.TID 0000.0001) %MON trcstat_ptracer33_mean       =   4.9148141647208E-01
(PID.TID 0000.0001) %MON trcstat_ptracer33_sd         =   3.4842402125069E+00
(PID.TID 0000.0001) %MON trcstat_ptracer33_del2       =   1.7944530115418E-02
(PID.TID 0000.0001) %MON trcstat_ptracer34_max        =   4.6744132995605E+01
(PID.TID 0000.0001) %MON trcstat_ptracer34_min        =  -6.2102729082108E-01
(PID.TID 0000.0001) %MON trcstat_ptracer34_mean       =   1.8757418463337E-01
(PID.TID 0000.0001) %MON trcstat_ptracer34_sd         =   3.4541088682491E-01
(PID.TID 0000.0001) %MON trcstat_ptracer34_del2       =   3.8097199741858E-03
(PID.TID 0000.0001) %MON trcstat_ptracer35_max        =   6.9515366554260E+00
(PID.TID 0000.0001) %MON trcstat_ptracer35_min        =  -3.1616717576981E-02
(PID.TID 0000.0001) %MON trcstat_ptracer35_mean       =   2.6570770593535E-02
(PID.TID 0000.0001) %MON trcstat_ptracer35_sd         =   5.5884534716994E-02
(PID.TID 0000.0001) %MON trcstat_ptracer35_del2       =   5.6063423523727E-04
(PID.TID 0000.0001) %MON trcstat_ptracer36_max        =   2.7204252929688E+03
(PID.TID 0000.0001) %MON trcstat_ptracer36_min        =   1.6412508544922E+03
(PID.TID 0000.0001) %MON trcstat_ptracer36_mean       =   2.4566175335246E+03
(PID.TID 0000.0001) %MON trcstat_ptracer36_sd         =   5.3625736492220E+01
(PID.TID 0000.0001) %MON trcstat_ptracer36_del2       =   6.3735105923422E-02
(PID.TID 0000.0001) %MON trcstat_ptracer37_max        =   4.6482058715820E+02
(PID.TID 0000.0001) %MON trcstat_ptracer37_min        =  -5.3406063079834E+01
(PID.TID 0000.0001) %MON trcstat_ptracer37_mean       =   1.8800692805515E+02
(PID.TID 0000.0001) %MON trcstat_ptracer37_sd         =   5.4492714691665E+01
(PID.TID 0000.0001) %MON trcstat_ptracer37_del2       =   8.4602087837502E-02
(PID.TID 0000.0001) %MON trcstat_ptracer38_max        =   6.5986056327820E+00
(PID.TID 0000.0001) %MON trcstat_ptracer38_min        =  -4.8991966247559E-01
(PID.TID 0000.0001) %MON trcstat_ptracer38_mean       =   4.7012473940396E-03
(PID.TID 0000.0001) %MON trcstat_ptracer38_sd         =   9.4054949863712E-02
(PID.TID 0000.0001) %MON trcstat_ptracer38_del2       =   9.4793903012468E-04
(PID.TID 0000.0001) %MON trcstat_ptracer39_max        =   1.7512470245361E+01
(PID.TID 0000.0001) %MON trcstat_ptracer39_min        =  -1.5147861242294E+00
(PID.TID 0000.0001) %MON trcstat_ptracer39_mean       =   8.4292812879336E-03
(PID.TID 0000.0001) %MON trcstat_ptracer39_sd         =   2.0402187878112E-01
(PID.TID 0000.0001) %MON trcstat_ptracer39_del2       =   2.5441894168327E-03
(PID.TID 0000.0001) // =======================================================
(PID.TID 0000.0001) // End MONITOR ptracers field statistics
(PID.TID 0000.0001) // =======================================================
(PID.TID 0000.0001) EXF_SET_FLD: processing field "apco2",  file: apCO2_2000
(PID.TID 0000.0001) EXF_SET_FLD:   myIter, count0, count1:         0     12      1
(PID.TID 0000.0001) EXF_SET_FLD:   first, changed, fac:   T   F   0.500000000E+00
(PID.TID 0000.0001) EXF_SET_FLD: field "apco2", it=         0, loading rec=    12
(PID.TID 0000.0001) EXF_SET_FLD:   from file: "apCO2_2000"
(PID.TID 0000.0001)  EXF_INTERP_READ: opening file: apCO2_2000
(PID.TID 0000.0001)  EXF_INTERP: file="apCO2_2000", rec=    12 , x-Per,P.Sym=    T    T
(PID.TID 0000.0001)  S.edge (j=-1,0,1) : proc= 2.2 1.1 0.0, yIn=  -91.500000  -90.000000  -88.500000
(PID.TID 0000.0001)  N.edge (j=+0,+1,+2) proc= 0.0 1.1 2.2, yIn=   88.500000   90.000000   91.500000
(PID.TID 0000.0001) EXF_SET_FLD: field "apco2", it=         0, loading rec=     1
(PID.TID 0000.0001) EXF_SET_FLD:   from file: "apCO2_2000"
(PID.TID 0000.0001)  EXF_INTERP_READ: opening file: apCO2_2000
(PID.TID 0000.0001)  EXF_INTERP: file="apCO2_2000", rec=     1 , x-Per,P.Sym=    T    T
(PID.TID 0000.0001)  S.edge (j=-1,0,1) : proc= 2.2 1.1 0.0, yIn=  -91.500000  -90.000000  -88.500000
(PID.TID 0000.0001)  N.edge (j=+0,+1,+2) proc= 0.0 1.1 2.2, yIn=   88.500000   90.000000   91.500000
(PID.TID 0000.0001) EXF_SET_UV: processing fields "uwind" & "vwind"
(PID.TID 0000.0001) EXF_SET_UV:   files: EIG_u10m_2000 & EIG_v10m_2000
(PID.TID 0000.0001) EXF_SET_UV:   myIter, count0, count1:         0     12      1
(PID.TID 0000.0001) EXF_SET_UV:   first, changed, fac:   T   F   0.500000000E+00
(PID.TID 0000.0001) EXF_SET_UV: fields "uwind" & "vwind", it=         0
(PID.TID 0000.0001) EXF_SET_UV:   loading rec=    12 from file: "EIG_u10m_2000"
(PID.TID 0000.0001) EXF_SET_UV:   loading rec=    12 from file: "EIG_v10m_2000"
(PID.TID 0000.0001)  EXF_INTERP_READ: opening file: EIG_u10m_2000
(PID.TID 0000.0001)  EXF_INTERP_READ: opening file: EIG_v10m_2000
(PID.TID 0000.0001)  EXF_INTERP_UV: fileU="EIG_u10m_2000", rec=    12 , x-Per,P.Sym=    T    T
(PID.TID 0000.0001)  S.edge (j=-1,0,1) : proc= 2.2 1.1 0.0, yIn=  -91.500000  -90.000000  -88.500000
(PID.TID 0000.0001)  N.edge (j=+0,+1,+2) proc= 0.0 1.1 2.2, yIn=   88.500000   90.000000   91.500000
(PID.TID 0000.0001) EXF_SET_UV: fields "uwind" & "vwind", it=         0
(PID.TID 0000.0001) EXF_SET_UV:   loading rec=     1 from file: "EIG_u10m_2000"
(PID.TID 0000.0001) EXF_SET_UV:   loading rec=     1 from file: "EIG_v10m_2000"
(PID.TID 0000.0001)  EXF_INTERP_READ: opening file: EIG_u10m_2000
(PID.TID 0000.0001)  EXF_INTERP_READ: opening file: EIG_v10m_2000
(PID.TID 0000.0001)  EXF_INTERP_UV: fileU="EIG_u10m_2000", rec=     1 , x-Per,P.Sym=    T    T
(PID.TID 0000.0001)  S.edge (j=-1,0,1) : proc= 2.2 1.1 0.0, yIn=  -91.500000  -90.000000  -88.500000
(PID.TID 0000.0001)  N.edge (j=+0,+1,+2) proc= 0.0 1.1 2.2, yIn=   88.500000   90.000000   91.500000
(PID.TID 0000.0001) EXF_SET_FLD: processing field "atemp",  file: EIG_tmp2m_degC_plus_ECCO_v4r1_ctrl_2000
(PID.TID 0000.0001) EXF_SET_FLD:   myIter, count0, count1:         0     12      1
(PID.TID 0000.0001) EXF_SET_FLD:   first, changed, fac:   T   F   0.500000000E+00
(PID.TID 0000.0001) EXF_SET_FLD: field "atemp", it=         0, loading rec=    12
(PID.TID 0000.0001) EXF_SET_FLD:   from file: "EIG_tmp2m_degC_plus_ECCO_v4r1_ctrl_2000"
(PID.TID 0000.0001)  EXF_INTERP_READ: opening file: EIG_tmp2m_degC_plus_ECCO_v4r1_ctrl_2000
(PID.TID 0000.0001)  EXF_INTERP: file="EIG_tmp2m_degC_plus_ECCO_v4r1_ctrl_2000", rec=    12 , x-Per,P.Sym=    T    T
(PID.TID 0000.0001)  S.edge (j=-1,0,1) : proc= 2.2 1.1 0.0, yIn=  -91.500000  -90.000000  -88.500000
(PID.TID 0000.0001)  N.edge (j=+0,+1,+2) proc= 0.0 1.1 2.2, yIn=   88.500000   90.000000   91.500000
(PID.TID 0000.0001) EXF_SET_FLD: field "atemp", it=         0, loading rec=     1
(PID.TID 0000.0001) EXF_SET_FLD:   from file: "EIG_tmp2m_degC_plus_ECCO_v4r1_ctrl_2000"
(PID.TID 0000.0001)  EXF_INTERP_READ: opening file: EIG_tmp2m_degC_plus_ECCO_v4r1_ctrl_2000
(PID.TID 0000.0001)  EXF_INTERP: file="EIG_tmp2m_degC_plus_ECCO_v4r1_ctrl_2000", rec=     1 , x-Per,P.Sym=    T    T
(PID.TID 0000.0001)  S.edge (j=-1,0,1) : proc= 2.2 1.1 0.0, yIn=  -91.500000  -90.000000  -88.500000
(PID.TID 0000.0001)  N.edge (j=+0,+1,+2) proc= 0.0 1.1 2.2, yIn=   88.500000   90.000000   91.500000
(PID.TID 0000.0001) EXF_SET_FLD: processing field "aqh",  file: EIG_spfh2m_plus_ECCO_v4r1_ctrl_2000
(PID.TID 0000.0001) EXF_SET_FLD:   myIter, count0, count1:         0     12      1
(PID.TID 0000.0001) EXF_SET_FLD:   first, changed, fac:   T   F   0.500000000E+00
(PID.TID 0000.0001) EXF_SET_FLD: field "aqh", it=         0, loading rec=    12
(PID.TID 0000.0001) EXF_SET_FLD:   from file: "EIG_spfh2m_plus_ECCO_v4r1_ctrl_2000"
(PID.TID 0000.0001)  EXF_INTERP_READ: opening file: EIG_spfh2m_plus_ECCO_v4r1_ctrl_2000
(PID.TID 0000.0001)  EXF_INTERP: file="EIG_spfh2m_plus_ECCO_v4r1_ctrl_2000", rec=    12 , x-Per,P.Sym=    T    T
(PID.TID 0000.0001)  S.edge (j=-1,0,1) : proc= 2.2 1.1 0.0, yIn=  -91.500000  -90.000000  -88.500000
(PID.TID 0000.0001)  N.edge (j=+0,+1,+2) proc= 0.0 1.1 2.2, yIn=   88.500000   90.000000   91.500000
(PID.TID 0000.0001) EXF_SET_FLD: field "aqh", it=         0, loading rec=     1
(PID.TID 0000.0001) EXF_SET_FLD:   from file: "EIG_spfh2m_plus_ECCO_v4r1_ctrl_2000"
(PID.TID 0000.0001)  EXF_INTERP_READ: opening file: EIG_spfh2m_plus_ECCO_v4r1_ctrl_2000
(PID.TID 0000.0001)  EXF_INTERP: file="EIG_spfh2m_plus_ECCO_v4r1_ctrl_2000", rec=     1 , x-Per,P.Sym=    T    T
(PID.TID 0000.0001)  S.edge (j=-1,0,1) : proc= 2.2 1.1 0.0, yIn=  -91.500000  -90.000000  -88.500000
(PID.TID 0000.0001)  N.edge (j=+0,+1,+2) proc= 0.0 1.1 2.2, yIn=   88.500000   90.000000   91.500000
(PID.TID 0000.0001) EXF_SET_FLD: processing field "precip",  file: EIG_rain_plus_ECCO_v4r1_ctrl_2000
(PID.TID 0000.0001) EXF_SET_FLD:   myIter, count0, count1:         0     12      1
(PID.TID 0000.0001) EXF_SET_FLD:   first, changed, fac:   T   F   0.500000000E+00
(PID.TID 0000.0001) EXF_SET_FLD: field "precip", it=         0, loading rec=    12
(PID.TID 0000.0001) EXF_SET_FLD:   from file: "EIG_rain_plus_ECCO_v4r1_ctrl_2000"
(PID.TID 0000.0001)  EXF_INTERP_READ: opening file: EIG_rain_plus_ECCO_v4r1_ctrl_2000
(PID.TID 0000.0001)  EXF_INTERP: file="EIG_rain_plus_ECCO_v4r1_ctrl_2000", rec=    12 , x-Per,P.Sym=    T    T
(PID.TID 0000.0001)  S.edge (j=-1,0,1) : proc= 2.2 1.1 0.0, yIn=  -91.500000  -90.000000  -88.500000
(PID.TID 0000.0001)  N.edge (j=+0,+1,+2) proc= 0.0 1.1 2.2, yIn=   88.500000   90.000000   91.500000
(PID.TID 0000.0001) EXF_SET_FLD: field "precip", it=         0, loading rec=     1
(PID.TID 0000.0001) EXF_SET_FLD:   from file: "EIG_rain_plus_ECCO_v4r1_ctrl_2000"
(PID.TID 0000.0001)  EXF_INTERP_READ: opening file: EIG_rain_plus_ECCO_v4r1_ctrl_2000
(PID.TID 0000.0001)  EXF_INTERP: file="EIG_rain_plus_ECCO_v4r1_ctrl_2000", rec=     1 , x-Per,P.Sym=    T    T
(PID.TID 0000.0001)  S.edge (j=-1,0,1) : proc= 2.2 1.1 0.0, yIn=  -91.500000  -90.000000  -88.500000
(PID.TID 0000.0001)  N.edge (j=+0,+1,+2) proc= 0.0 1.1 2.2, yIn=   88.500000   90.000000   91.500000
(PID.TID 0000.0001) EXF_SET_FLD: processing field "swdown",  file: EIG_dsw_plus_ECCO_v4r1_ctrl_2000
(PID.TID 0000.0001) EXF_SET_FLD:   myIter, count0, count1:         0     12      1
(PID.TID 0000.0001) EXF_SET_FLD:   first, changed, fac:   T   F   0.500000000E+00
(PID.TID 0000.0001) EXF_SET_FLD: field "swdown", it=         0, loading rec=    12
(PID.TID 0000.0001) EXF_SET_FLD:   from file: "EIG_dsw_plus_ECCO_v4r1_ctrl_2000"
(PID.TID 0000.0001)  EXF_INTERP_READ: opening file: EIG_dsw_plus_ECCO_v4r1_ctrl_2000
(PID.TID 0000.0001)  EXF_INTERP: file="EIG_dsw_plus_ECCO_v4r1_ctrl_2000", rec=    12 , x-Per,P.Sym=    T    T
(PID.TID 0000.0001)  S.edge (j=-1,0,1) : proc= 2.2 1.1 0.0, yIn=  -91.500000  -90.000000  -88.500000
(PID.TID 0000.0001)  N.edge (j=+0,+1,+2) proc= 0.0 1.1 2.2, yIn=   88.500000   90.000000   91.500000
(PID.TID 0000.0001) EXF_SET_FLD: field "swdown", it=         0, loading rec=     1
(PID.TID 0000.0001) EXF_SET_FLD:   from file: "EIG_dsw_plus_ECCO_v4r1_ctrl_2000"
(PID.TID 0000.0001)  EXF_INTERP_READ: opening file: EIG_dsw_plus_ECCO_v4r1_ctrl_2000
(PID.TID 0000.0001)  EXF_INTERP: file="EIG_dsw_plus_ECCO_v4r1_ctrl_2000", rec=     1 , x-Per,P.Sym=    T    T
(PID.TID 0000.0001)  S.edge (j=-1,0,1) : proc= 2.2 1.1 0.0, yIn=  -91.500000  -90.000000  -88.500000
(PID.TID 0000.0001)  N.edge (j=+0,+1,+2) proc= 0.0 1.1 2.2, yIn=   88.500000   90.000000   91.500000
(PID.TID 0000.0001) EXF_SET_FLD: processing field "lwdown",  file: EIG_dlw_plus_ECCO_v4r1_ctrl_2000
(PID.TID 0000.0001) EXF_SET_FLD:   myIter, count0, count1:         0     12      1
(PID.TID 0000.0001) EXF_SET_FLD:   first, changed, fac:   T   F   0.500000000E+00
(PID.TID 0000.0001) EXF_SET_FLD: field "lwdown", it=         0, loading rec=    12
(PID.TID 0000.0001) EXF_SET_FLD:   from file: "EIG_dlw_plus_ECCO_v4r1_ctrl_2000"
(PID.TID 0000.0001)  EXF_INTERP_READ: opening file: EIG_dlw_plus_ECCO_v4r1_ctrl_2000
(PID.TID 0000.0001)  EXF_INTERP: file="EIG_dlw_plus_ECCO_v4r1_ctrl_2000", rec=    12 , x-Per,P.Sym=    T    T
(PID.TID 0000.0001)  S.edge (j=-1,0,1) : proc= 2.2 1.1 0.0, yIn=  -91.500000  -90.000000  -88.500000
(PID.TID 0000.0001)  N.edge (j=+0,+1,+2) proc= 0.0 1.1 2.2, yIn=   88.500000   90.000000   91.500000
(PID.TID 0000.0001) EXF_SET_FLD: field "lwdown", it=         0, loading rec=     1
(PID.TID 0000.0001) EXF_SET_FLD:   from file: "EIG_dlw_plus_ECCO_v4r1_ctrl_2000"
(PID.TID 0000.0001)  EXF_INTERP_READ: opening file: EIG_dlw_plus_ECCO_v4r1_ctrl_2000
(PID.TID 0000.0001)  EXF_INTERP: file="EIG_dlw_plus_ECCO_v4r1_ctrl_2000", rec=     1 , x-Per,P.Sym=    T    T
(PID.TID 0000.0001)  S.edge (j=-1,0,1) : proc= 2.2 1.1 0.0, yIn=  -91.500000  -90.000000  -88.500000
(PID.TID 0000.0001)  N.edge (j=+0,+1,+2) proc= 0.0 1.1 2.2, yIn=   88.500000   90.000000   91.500000
(PID.TID 0000.0001) EXF_SET_FLD: processing field "runoff",  file: runoff-2d-Fekete-1deg-mon-V4-SMOOTH.bin
(PID.TID 0000.0001) EXF_SET_FLD:   myIter, count0, count1:         0     12      1
(PID.TID 0000.0001) EXF_SET_FLD:   first, changed, fac:   T   F   0.500000000E+00
(PID.TID 0000.0001) EXF_SET_FLD: field "runoff", it=         0, loading rec=    12
(PID.TID 0000.0001) EXF_SET_FLD:   from file: "runoff-2d-Fekete-1deg-mon-V4-SMOOTH.bin"
(PID.TID 0000.0001)  EXF_INTERP_READ: opening file: runoff-2d-Fekete-1deg-mon-V4-SMOOTH.bin
(PID.TID 0000.0001)  EXF_INTERP: file="runoff-2d-Fekete-1deg-mon-V4-SMOOTH.bin", rec=    12 , x-Per,P.Sym=    T    T
(PID.TID 0000.0001)  S.edge (j=-1,0,1) : proc= 2.2 1.1 0.0, yIn=  -91.500000  -90.000000  -88.500000
(PID.TID 0000.0001)  N.edge (j=+0,+1,+2) proc= 0.0 1.1 2.2, yIn=   88.500000   90.000000   91.500000
(PID.TID 0000.0001) EXF_SET_FLD: field "runoff", it=         0, loading rec=     1
(PID.TID 0000.0001) EXF_SET_FLD:   from file: "runoff-2d-Fekete-1deg-mon-V4-SMOOTH.bin"
(PID.TID 0000.0001)  EXF_INTERP_READ: opening file: runoff-2d-Fekete-1deg-mon-V4-SMOOTH.bin
(PID.TID 0000.0001)  EXF_INTERP: file="runoff-2d-Fekete-1deg-mon-V4-SMOOTH.bin", rec=     1 , x-Per,P.Sym=    T    T
(PID.TID 0000.0001)  S.edge (j=-1,0,1) : proc= 2.2 1.1 0.0, yIn=  -91.500000  -90.000000  -88.500000
(PID.TID 0000.0001)  N.edge (j=+0,+1,+2) proc= 0.0 1.1 2.2, yIn=   88.500000   90.000000   91.500000
(PID.TID 0000.0001) // =======================================================
(PID.TID 0000.0001) // Begin MONITOR EXF statistics
(PID.TID 0000.0001) // =======================================================
(PID.TID 0000.0001) %MON exf_tsnumber                 =                     0
(PID.TID 0000.0001) %MON exf_time_sec                 =   0.0000000000000E+00
(PID.TID 0000.0001) %MON exf_ustress_max              =   1.3197150319256E-01
(PID.TID 0000.0001) %MON exf_ustress_min              =  -1.1241981062184E-01
(PID.TID 0000.0001) %MON exf_ustress_mean             =  -4.4180119380266E-03
(PID.TID 0000.0001) %MON exf_ustress_sd               =   4.0089270205977E-02
(PID.TID 0000.0001) %MON exf_ustress_del2             =   1.4491822243411E-04
(PID.TID 0000.0001) %MON exf_vstress_max              =   9.9475057744052E-02
(PID.TID 0000.0001) %MON exf_vstress_min              =  -1.0051745098143E-01
(PID.TID 0000.0001) %MON exf_vstress_mean             =  -3.5066816367686E-03
(PID.TID 0000.0001) %MON exf_vstress_sd               =   1.8016414682053E-02
(PID.TID 0000.0001) %MON exf_vstress_del2             =   9.7296041162761E-05
(PID.TID 0000.0001) %MON exf_hflux_max                =   4.1332097421966E+02
(PID.TID 0000.0001) %MON exf_hflux_min                =  -3.3217430683864E+02
(PID.TID 0000.0001) %MON exf_hflux_mean               =  -8.1859540885358E+01
(PID.TID 0000.0001) %MON exf_hflux_sd                 =   1.0068707423552E+02
(PID.TID 0000.0001) %MON exf_hflux_del2               =   7.3316923717300E-01
(PID.TID 0000.0001) %MON exf_sflux_max                =   8.5103649949442E-08
(PID.TID 0000.0001) %MON exf_sflux_min                =  -6.3499828181685E-07
(PID.TID 0000.0001) %MON exf_sflux_mean               =  -1.5667042388710E-08
(PID.TID 0000.0001) %MON exf_sflux_sd                 =   3.7495716069479E-08
(PID.TID 0000.0001) %MON exf_sflux_del2               =   3.5164741065783E-10
(PID.TID 0000.0001) %MON exf_uwind_max                =   9.5224857206284E+00
(PID.TID 0000.0001) %MON exf_uwind_min                =  -8.7611307694778E+00
(PID.TID 0000.0001) %MON exf_uwind_mean               =  -4.9431205154469E-01
(PID.TID 0000.0001) %MON exf_uwind_sd                 =   4.4179319085267E+00
(PID.TID 0000.0001) %MON exf_uwind_del2               =   2.1172851608928E-02
(PID.TID 0000.0001) %MON exf_vwind_max                =   8.7164818880075E+00
(PID.TID 0000.0001) %MON exf_vwind_min                =  -6.9944463716967E+00
(PID.TID 0000.0001) %MON exf_vwind_mean               =  -3.7872453115568E-01
(PID.TID 0000.0001) %MON exf_vwind_sd                 =   2.2080112107056E+00
(PID.TID 0000.0001) %MON exf_vwind_del2               =   1.4187763702737E-02
(PID.TID 0000.0001) %MON exf_wspeed_max               =   9.5380653617048E+00
(PID.TID 0000.0001) %MON exf_wspeed_min               =   4.6660499226386E-02
(PID.TID 0000.0001) %MON exf_wspeed_mean              =   4.4777651512225E+00
(PID.TID 0000.0001) %MON exf_wspeed_sd                =   2.1750475351768E+00
(PID.TID 0000.0001) %MON exf_wspeed_del2              =   2.6390569373174E-02
(PID.TID 0000.0001) %MON exf_atemp_max                =   3.0188411019333E+02
(PID.TID 0000.0001) %MON exf_atemp_min                =   2.4477540550809E+02
(PID.TID 0000.0001) %MON exf_atemp_mean               =   2.9041286683468E+02
(PID.TID 0000.0001) %MON exf_atemp_sd                 =   9.7907953297784E+00
(PID.TID 0000.0001) %MON exf_atemp_del2               =   9.0505580416294E-02
(PID.TID 0000.0001) %MON exf_aqh_max                  =   1.9838785819047E-02
(PID.TID 0000.0001) %MON exf_aqh_min                  =   3.5635560571023E-04
(PID.TID 0000.0001) %MON exf_aqh_mean                 =   1.1235130713023E-02
(PID.TID 0000.0001) %MON exf_aqh_sd                   =   5.1804447890857E-03
(PID.TID 0000.0001) %MON exf_aqh_del2                 =   5.8602317193635E-05
(PID.TID 0000.0001) %MON exf_lwflux_max               =   1.5496547424105E+02
(PID.TID 0000.0001) %MON exf_lwflux_min               =   4.3012168101765E+00
(PID.TID 0000.0001) %MON exf_lwflux_mean              =   4.1308763542327E+01
(PID.TID 0000.0001) %MON exf_lwflux_sd                =   1.3587283248759E+01
(PID.TID 0000.0001) %MON exf_lwflux_del2              =   1.9930757066374E-01
(PID.TID 0000.0001) %MON exf_evap_max                 =   8.5128523201826E-08
(PID.TID 0000.0001) %MON exf_evap_min                 =  -1.2832224145005E-08
(PID.TID 0000.0001) %MON exf_evap_mean                =   2.6031676896681E-08
(PID.TID 0000.0001) %MON exf_evap_sd                  =   1.7974662914332E-08
(PID.TID 0000.0001) %MON exf_evap_del2                =   1.6640093121465E-10
(PID.TID 0000.0001) %MON exf_precip_max               =   1.4863974505744E-07
(PID.TID 0000.0001) %MON exf_precip_min               =  -8.5454258814521E-09
(PID.TID 0000.0001) %MON exf_precip_mean              =   3.9997275821750E-08
(PID.TID 0000.0001) %MON exf_precip_sd                =   2.9094932092526E-08
(PID.TID 0000.0001) %MON exf_precip_del2              =   3.1034477850694E-10
(PID.TID 0000.0001) %MON exf_swflux_max               =   3.3121876763925E+01
(PID.TID 0000.0001) %MON exf_swflux_min               =  -3.5303847682555E+02
(PID.TID 0000.0001) %MON exf_swflux_mean              =  -1.9692612279934E+02
(PID.TID 0000.0001) %MON exf_swflux_sd                =   7.3608010845450E+01
(PID.TID 0000.0001) %MON exf_swflux_del2              =   9.3067975338874E-01
(PID.TID 0000.0001) %MON exf_swdown_max               =   3.8081123372912E+02
(PID.TID 0000.0001) %MON exf_swdown_min               =  -4.7316966805607E+01
(PID.TID 0000.0001) %MON exf_swdown_mean              =   2.1343149596385E+02
(PID.TID 0000.0001) %MON exf_swdown_sd                =   7.8896145517863E+01
(PID.TID 0000.0001) %MON exf_swdown_del2              =   1.0071708478324E+00
(PID.TID 0000.0001) %MON exf_lwdown_max               =   4.4360816286504E+02
(PID.TID 0000.0001) %MON exf_lwdown_min               =   1.5699785740674E+02
(PID.TID 0000.0001) %MON exf_lwdown_mean              =   3.6918898915757E+02
(PID.TID 0000.0001) %MON exf_lwdown_sd                =   5.1751594993112E+01
(PID.TID 0000.0001) %MON exf_lwdown_del2              =   1.5869276340559E+00
(PID.TID 0000.0001) %MON exf_runoff_max               =   5.5080651490888E-07
(PID.TID 0000.0001) %MON exf_runoff_min               =   0.0000000000000E+00
(PID.TID 0000.0001) %MON exf_runoff_mean              =   1.7014434636413E-09
(PID.TID 0000.0001) %MON exf_runoff_sd                =   1.1339133423345E-08
(PID.TID 0000.0001) %MON exf_runoff_del2              =   1.2648092288215E-10
(PID.TID 0000.0001) %MON exf_apco2_max                =   3.7073999010317E-04
(PID.TID 0000.0001) %MON exf_apco2_min                =   3.6819630804530E-04
(PID.TID 0000.0001) %MON exf_apco2_mean               =   3.6882166552950E-04
(PID.TID 0000.0001) %MON exf_apco2_sd                 =   5.2225728733331E-07
(PID.TID 0000.0001) %MON exf_apco2_del2               =   1.5223079604038E-06
(PID.TID 0000.0001) // =======================================================
(PID.TID 0000.0001) // End MONITOR EXF statistics
(PID.TID 0000.0001) // =======================================================
 EXTERNAL_FIELDS_LOAD,         0 : iP,iLd,i0,i1=   12    0   12    1 ; Wght=  0.5000000000  0.5000000000
 EXTERNAL_FIELDS_LOAD, it=         0 : Reading new data, i0,i1=   12    1 (prev=   12    0 )
 EXTERNAL_FIELDS_LOAD: (fu0,1),fu,fv=  0.0000E+00  0.0000E+00 -8.5079E-04  2.4541E-02
 EXTERNAL_FIELDS_LOAD: SST,SSS,Q,E-P=  0.0000E+00  0.0000E+00 -1.4151E+02 -4.1128E-05
(PID.TID 0000.0001) S/R DARWIN_FIELDS_LOAD: Reading forcing data  0.000000000000E+00          0
(PID.TID 0000.0001)  MDS_READ_FIELD: opening global file: 3deg_Mahowald_2009_soluble_iron_dust.bin
(PID.TID 0000.0001)  MDS_READ_FIELD: opening global file: 3deg_Mahowald_2009_soluble_iron_dust.bin
DEBUG_STATS_RL:          Uvel (THERMODYNAMICS)  min= -2.38301202654839E-01
DEBUG_STATS_RL:          Uvel (THERMODYNAMICS)  max=  1.89919561147690E-01
DEBUG_STATS_RL:          Uvel (THERMODYNAMICS) mean=  4.34596969872428E-03
DEBUG_STATS_RL:          Uvel (THERMODYNAMICS) S.D.=  2.22729535248782E-02
DEBUG_STATS_RL:          Vvel (THERMODYNAMICS)  min= -2.17408701777458E-01
DEBUG_STATS_RL:          Vvel (THERMODYNAMICS)  max=  1.49026080965996E-01
DEBUG_STATS_RL:          Vvel (THERMODYNAMICS) mean=  2.04012565921164E-04
DEBUG_STATS_RL:          Vvel (THERMODYNAMICS) S.D.=  1.29018089873914E-02
DEBUG_STATS_RL:          Wvel (THERMODYNAMICS)  min= -5.43636469636994E-05
DEBUG_STATS_RL:          Wvel (THERMODYNAMICS)  max=  5.22788935574831E-05
DEBUG_STATS_RL:          Wvel (THERMODYNAMICS) mean=  1.15417846277439E-08
DEBUG_STATS_RL:          Wvel (THERMODYNAMICS) S.D.=  2.64746611410843E-06
DEBUG_STATS_RL:         Theta (THERMODYNAMICS)  min= -3.46751164312462E+00
DEBUG_STATS_RL:         Theta (THERMODYNAMICS)  max=  3.02462411177576E+01
DEBUG_STATS_RL:         Theta (THERMODYNAMICS) mean=  6.18025038891435E+00
DEBUG_STATS_RL:         Theta (THERMODYNAMICS) S.D.=  6.76147799126129E+00
DEBUG_STATS_RL:          Salt (THERMODYNAMICS)  min=  3.14845895423960E+01
DEBUG_STATS_RL:          Salt (THERMODYNAMICS)  max=  3.75568400756261E+01
DEBUG_STATS_RL:          Salt (THERMODYNAMICS) mean=  3.46619898303264E+01
DEBUG_STATS_RL:          Salt (THERMODYNAMICS) S.D.=  4.90706794126934E-01
DEBUG_STATS_RL:                   PTRACER.0001  min= -2.83574631385025E-01
DEBUG_STATS_RL:                   PTRACER.0001  max=  3.52291750113433E+00
DEBUG_STATS_RL:                   PTRACER.0001 mean=  1.96072607435647E+00
DEBUG_STATS_RL:                   PTRACER.0001 S.D.=  7.55821099994585E-01
DEBUG_STATS_RL:                   GNm1TRC.0001  min=  0.00000000000000E+00
DEBUG_STATS_RL:                   GNm1TRC.0001  max=  0.00000000000000E+00
DEBUG_STATS_RL:                   GNm1TRC.0001 mean=  0.00000000000000E+00
DEBUG_STATS_RL:                   GNm1TRC.0001 S.D.=  0.00000000000000E+00
DEBUG_STATS_RL:                   PTRACER.0002  min= -4.57943231022461E+00
DEBUG_STATS_RL:                   PTRACER.0002  max=  4.87237201850953E+01
DEBUG_STATS_RL:                   PTRACER.0002 mean=  2.77650134700365E+01
DEBUG_STATS_RL:                   PTRACER.0002 S.D.=  1.09493420812265E+01
DEBUG_STATS_RL:                   GNm1TRC.0002  min=  0.00000000000000E+00
DEBUG_STATS_RL:                   GNm1TRC.0002  max=  0.00000000000000E+00
DEBUG_STATS_RL:                   GNm1TRC.0002 mean=  0.00000000000000E+00
DEBUG_STATS_RL:                   GNm1TRC.0002 S.D.=  0.00000000000000E+00
DEBUG_STATS_RL:                   PTRACER.0003  min= -1.33915277151315E-04
DEBUG_STATS_RL:                   PTRACER.0003  max=  1.21158554449298E-03
DEBUG_STATS_RL:                   PTRACER.0003 mean=  5.88775825913105E-04
DEBUG_STATS_RL:                   PTRACER.0003 S.D.=  1.75191664388196E-04
DEBUG_STATS_RL:                   GNm1TRC.0003  min=  0.00000000000000E+00
DEBUG_STATS_RL:                   GNm1TRC.0003  max=  0.00000000000000E+00
DEBUG_STATS_RL:                   GNm1TRC.0003 mean=  0.00000000000000E+00
DEBUG_STATS_RL:                   GNm1TRC.0003 S.D.=  0.00000000000000E+00
DEBUG_STATS_RL:                   PTRACER.0004  min= -2.54030829133781E+01
DEBUG_STATS_RL:                   PTRACER.0004  max=  1.98925974337501E+02
DEBUG_STATS_RL:                   PTRACER.0004 mean=  6.95762878342313E+01
DEBUG_STATS_RL:                   PTRACER.0004 S.D.=  5.06361980785022E+01
DEBUG_STATS_RL:                   GNm1TRC.0004  min=  0.00000000000000E+00
DEBUG_STATS_RL:                   GNm1TRC.0004  max=  0.00000000000000E+00
DEBUG_STATS_RL:                   GNm1TRC.0004 mean=  0.00000000000000E+00
DEBUG_STATS_RL:                   GNm1TRC.0004 S.D.=  0.00000000000000E+00
DEBUG_STATS_RL:                   PTRACER.0005  min= -1.82413518842011E-02
DEBUG_STATS_RL:                   PTRACER.0005  max=  5.66421613574200E-01
DEBUG_STATS_RL:                   PTRACER.0005 mean=  1.19505690214076E-02
DEBUG_STATS_RL:                   PTRACER.0005 S.D.=  4.22675908952013E-02
DEBUG_STATS_RL:                   GNm1TRC.0005  min=  0.00000000000000E+00
DEBUG_STATS_RL:                   GNm1TRC.0005  max=  0.00000000000000E+00
DEBUG_STATS_RL:                   GNm1TRC.0005 mean=  0.00000000000000E+00
DEBUG_STATS_RL:                   GNm1TRC.0005 S.D.=  0.00000000000000E+00
DEBUG_STATS_RL:                   PTRACER.0006  min= -2.91861630147217E-01
DEBUG_STATS_RL:                   PTRACER.0006  max=  9.06274581718719E+00
DEBUG_STATS_RL:                   PTRACER.0006 mean=  1.91209104342519E-01
DEBUG_STATS_RL:                   PTRACER.0006 S.D.=  6.76281454323222E-01
DEBUG_STATS_RL:                   GNm1TRC.0006  min=  0.00000000000000E+00
DEBUG_STATS_RL:                   GNm1TRC.0006  max=  0.00000000000000E+00
DEBUG_STATS_RL:                   GNm1TRC.0006 mean=  0.00000000000000E+00
DEBUG_STATS_RL:                   GNm1TRC.0006 S.D.=  0.00000000000000E+00
DEBUG_STATS_RL:                   PTRACER.0007  min= -1.82413526695485E-05
DEBUG_STATS_RL:                   PTRACER.0007  max=  5.66421606589938E-04
DEBUG_STATS_RL:                   PTRACER.0007 mean=  1.19505690115307E-05
DEBUG_STATS_RL:                   PTRACER.0007 S.D.=  4.22675908199754E-05
DEBUG_STATS_RL:                   GNm1TRC.0007  min=  0.00000000000000E+00
DEBUG_STATS_RL:                   GNm1TRC.0007  max=  0.00000000000000E+00
DEBUG_STATS_RL:                   GNm1TRC.0007 mean=  0.00000000000000E+00
DEBUG_STATS_RL:                   GNm1TRC.0007 S.D.=  0.00000000000000E+00
DEBUG_STATS_RL:                   PTRACER.0008  min= -4.08255965587638E-03
DEBUG_STATS_RL:                   PTRACER.0008  max=  5.49843639201134E-02
DEBUG_STATS_RL:                   PTRACER.0008 mean=  1.93669834243255E-04
DEBUG_STATS_RL:                   PTRACER.0008 S.D.=  1.75251924077402E-03
DEBUG_STATS_RL:                   GNm1TRC.0008  min=  0.00000000000000E+00
DEBUG_STATS_RL:                   GNm1TRC.0008  max=  0.00000000000000E+00
DEBUG_STATS_RL:                   GNm1TRC.0008 mean=  0.00000000000000E+00
DEBUG_STATS_RL:                   GNm1TRC.0008 S.D.=  0.00000000000000E+00
DEBUG_STATS_RL:                   PTRACER.0009  min= -6.53209544940221E-02
DEBUG_STATS_RL:                   PTRACER.0009  max=  8.79749822721814E-01
DEBUG_STATS_RL:                   PTRACER.0009 mean=  3.09871734790212E-03
DEBUG_STATS_RL:                   PTRACER.0009 S.D.=  2.80403078523868E-02
DEBUG_STATS_RL:                   GNm1TRC.0009  min=  0.00000000000000E+00
DEBUG_STATS_RL:                   GNm1TRC.0009  max=  0.00000000000000E+00
DEBUG_STATS_RL:                   GNm1TRC.0009 mean=  0.00000000000000E+00
DEBUG_STATS_RL:                   GNm1TRC.0009 S.D.=  0.00000000000000E+00
DEBUG_STATS_RL:                   PTRACER.0010  min= -4.08255970316866E-06
DEBUG_STATS_RL:                   PTRACER.0010  max=  5.49843641238283E-05
DEBUG_STATS_RL:                   PTRACER.0010 mean=  1.93669834571526E-07
DEBUG_STATS_RL:                   PTRACER.0010 S.D.=  1.75251924856679E-06
DEBUG_STATS_RL:                   GNm1TRC.0010  min=  0.00000000000000E+00
DEBUG_STATS_RL:                   GNm1TRC.0010  max=  0.00000000000000E+00
DEBUG_STATS_RL:                   GNm1TRC.0010 mean=  0.00000000000000E+00
DEBUG_STATS_RL:                   GNm1TRC.0010 S.D.=  0.00000000000000E+00
DEBUG_STATS_RL:                   PTRACER.0011  min= -1.20394808530251E-03
DEBUG_STATS_RL:                   PTRACER.0011  max=  1.91211234172516E-02
DEBUG_STATS_RL:                   PTRACER.0011 mean=  3.38109727121988E-05
DEBUG_STATS_RL:                   PTRACER.0011 S.D.=  4.26634287731489E-04
DEBUG_STATS_RL:                   GNm1TRC.0011  min=  0.00000000000000E+00
DEBUG_STATS_RL:                   GNm1TRC.0011  max=  0.00000000000000E+00
DEBUG_STATS_RL:                   GNm1TRC.0011 mean=  0.00000000000000E+00
DEBUG_STATS_RL:                   GNm1TRC.0011 S.D.=  0.00000000000000E+00
DEBUG_STATS_RL:                   PTRACER.0012  min= -1.26203123589284E-02
DEBUG_STATS_RL:                   PTRACER.0012  max=  1.45927604982397E-01
DEBUG_STATS_RL:                   PTRACER.0012 mean=  3.90350244586843E-04
DEBUG_STATS_RL:                   PTRACER.0012 S.D.=  3.98695445283591E-03
DEBUG_STATS_RL:                   GNm1TRC.0012  min=  0.00000000000000E+00
DEBUG_STATS_RL:                   GNm1TRC.0012  max=  0.00000000000000E+00
DEBUG_STATS_RL:                   GNm1TRC.0012 mean=  0.00000000000000E+00
DEBUG_STATS_RL:                   GNm1TRC.0012 S.D.=  0.00000000000000E+00
DEBUG_STATS_RL:                   PTRACER.0013  min= -2.01924997742854E-01
DEBUG_STATS_RL:                   PTRACER.0013  max=  2.33484167971835E+00
DEBUG_STATS_RL:                   PTRACER.0013 mean=  6.24560391342044E-03
DEBUG_STATS_RL:                   PTRACER.0013 S.D.=  6.37912712453736E-02
DEBUG_STATS_RL:                   GNm1TRC.0013  min=  0.00000000000000E+00
DEBUG_STATS_RL:                   GNm1TRC.0013  max=  0.00000000000000E+00
DEBUG_STATS_RL:                   GNm1TRC.0013 mean=  0.00000000000000E+00
DEBUG_STATS_RL:                   GNm1TRC.0013 S.D.=  0.00000000000000E+00
DEBUG_STATS_RL:                   PTRACER.0014  min= -1.26203120388441E-05
DEBUG_STATS_RL:                   PTRACER.0014  max=  1.45927613829273E-04
DEBUG_STATS_RL:                   PTRACER.0014 mean=  3.90350245966683E-07
DEBUG_STATS_RL:                   PTRACER.0014 S.D.=  3.98695449203268E-06
DEBUG_STATS_RL:                   GNm1TRC.0014  min=  0.00000000000000E+00
DEBUG_STATS_RL:                   GNm1TRC.0014  max=  0.00000000000000E+00
DEBUG_STATS_RL:                   GNm1TRC.0014 mean=  0.00000000000000E+00
DEBUG_STATS_RL:                   GNm1TRC.0014 S.D.=  0.00000000000000E+00
DEBUG_STATS_RL:                   PTRACER.0015  min= -3.72529228001338E-02
DEBUG_STATS_RL:                   PTRACER.0015  max=  9.21799581265551E-01
DEBUG_STATS_RL:                   PTRACER.0015 mean=  2.32959418231528E-03
DEBUG_STATS_RL:                   PTRACER.0015 S.D.=  2.30375353384977E-02
DEBUG_STATS_RL:                   GNm1TRC.0015  min=  0.00000000000000E+00
DEBUG_STATS_RL:                   GNm1TRC.0015  max=  0.00000000000000E+00
DEBUG_STATS_RL:                   GNm1TRC.0015 mean=  0.00000000000000E+00
DEBUG_STATS_RL:                   GNm1TRC.0015 S.D.=  0.00000000000000E+00
DEBUG_STATS_RL:                   PTRACER.0016  min= -4.93514848008873E-03
DEBUG_STATS_RL:                   PTRACER.0016  max=  1.36222095861589E-01
DEBUG_STATS_RL:                   PTRACER.0016 mean=  1.30288248109424E-03
DEBUG_STATS_RL:                   PTRACER.0016 S.D.=  3.02076777775434E-03
DEBUG_STATS_RL:                   GNm1TRC.0016  min=  0.00000000000000E+00
DEBUG_STATS_RL:                   GNm1TRC.0016  max=  0.00000000000000E+00
DEBUG_STATS_RL:                   GNm1TRC.0016 mean=  0.00000000000000E+00
DEBUG_STATS_RL:                   GNm1TRC.0016 S.D.=  0.00000000000000E+00
DEBUG_STATS_RL:                   PTRACER.0017  min= -7.89623756814196E-02
DEBUG_STATS_RL:                   PTRACER.0017  max=  2.17955353378543E+00
DEBUG_STATS_RL:                   PTRACER.0017 mean=  2.08461196980421E-02
DEBUG_STATS_RL:                   PTRACER.0017 S.D.=  4.83322844443284E-02
DEBUG_STATS_RL:                   GNm1TRC.0017  min=  0.00000000000000E+00
DEBUG_STATS_RL:                   GNm1TRC.0017  max=  0.00000000000000E+00
DEBUG_STATS_RL:                   GNm1TRC.0017 mean=  0.00000000000000E+00
DEBUG_STATS_RL:                   GNm1TRC.0017 S.D.=  0.00000000000000E+00
DEBUG_STATS_RL:                   PTRACER.0018  min= -4.93514838915492E-06
DEBUG_STATS_RL:                   PTRACER.0018  max=  1.36222091051374E-04
DEBUG_STATS_RL:                   PTRACER.0018 mean=  1.30288248033885E-06
DEBUG_STATS_RL:                   PTRACER.0018 S.D.=  3.02076775765840E-06
DEBUG_STATS_RL:                   GNm1TRC.0018  min=  0.00000000000000E+00
DEBUG_STATS_RL:                   GNm1TRC.0018  max=  0.00000000000000E+00
DEBUG_STATS_RL:                   GNm1TRC.0018 mean=  0.00000000000000E+00
DEBUG_STATS_RL:                   GNm1TRC.0018 S.D.=  0.00000000000000E+00
DEBUG_STATS_RL:                   PTRACER.0019  min= -2.90028444367331E-01
DEBUG_STATS_RL:                   PTRACER.0019  max=  1.96123189820861E+01
DEBUG_STATS_RL:                   PTRACER.0019 mean=  1.24693788771966E-01
DEBUG_STATS_RL:                   PTRACER.0019 S.D.=  3.19358035184711E-01
DEBUG_STATS_RL:                   GNm1TRC.0019  min=  0.00000000000000E+00
DEBUG_STATS_RL:                   GNm1TRC.0019  max=  0.00000000000000E+00
DEBUG_STATS_RL:                   GNm1TRC.0019 mean=  0.00000000000000E+00
DEBUG_STATS_RL:                   GNm1TRC.0019 S.D.=  0.00000000000000E+00
DEBUG_STATS_RL:                   PTRACER.0020  min= -2.87717162470544E-02
DEBUG_STATS_RL:                   PTRACER.0020  max=  3.27329902991413E-01
DEBUG_STATS_RL:                   PTRACER.0020 mean=  2.99821698641588E-03
DEBUG_STATS_RL:                   PTRACER.0020 S.D.=  1.51602360030455E-02
DEBUG_STATS_RL:                   GNm1TRC.0020  min=  0.00000000000000E+00
DEBUG_STATS_RL:                   GNm1TRC.0020  max=  0.00000000000000E+00
DEBUG_STATS_RL:                   GNm1TRC.0020 mean=  0.00000000000000E+00
DEBUG_STATS_RL:                   GNm1TRC.0020 S.D.=  0.00000000000000E+00
DEBUG_STATS_RL:                   PTRACER.0021  min= -1.24858278282450E-01
DEBUG_STATS_RL:                   PTRACER.0021  max=  8.53364413131515E-01
DEBUG_STATS_RL:                   PTRACER.0021 mean=  1.47954190831878E-02
DEBUG_STATS_RL:                   PTRACER.0021 S.D.=  5.66115353752685E-02
DEBUG_STATS_RL:                   GNm1TRC.0021  min=  0.00000000000000E+00
DEBUG_STATS_RL:                   GNm1TRC.0021  max=  0.00000000000000E+00
DEBUG_STATS_RL:                   GNm1TRC.0021 mean=  0.00000000000000E+00
DEBUG_STATS_RL:                   GNm1TRC.0021 S.D.=  0.00000000000000E+00
DEBUG_STATS_RL:                   PTRACER.0022  min= -5.07809220993651E-02
DEBUG_STATS_RL:                   PTRACER.0022  max=  1.73791494577800E-01
DEBUG_STATS_RL:                   PTRACER.0022 mean=  5.25933972002025E-04
DEBUG_STATS_RL:                   PTRACER.0022 S.D.=  5.67542821743035E-03
DEBUG_STATS_RL:                   GNm1TRC.0022  min=  0.00000000000000E+00
DEBUG_STATS_RL:                   GNm1TRC.0022  max=  0.00000000000000E+00
DEBUG_STATS_RL:                   GNm1TRC.0022 mean=  0.00000000000000E+00
DEBUG_STATS_RL:                   GNm1TRC.0022 S.D.=  0.00000000000000E+00
DEBUG_STATS_RL:                   PTRACER.0023  min= -2.98244264592865E-02
DEBUG_STATS_RL:                   PTRACER.0023  max=  1.03318896795011E-01
DEBUG_STATS_RL:                   PTRACER.0023 mean=  2.23648129412725E-04
DEBUG_STATS_RL:                   PTRACER.0023 S.D.=  2.25745557513636E-03
DEBUG_STATS_RL:                   GNm1TRC.0023  min=  0.00000000000000E+00
DEBUG_STATS_RL:                   GNm1TRC.0023  max=  0.00000000000000E+00
DEBUG_STATS_RL:                   GNm1TRC.0023 mean=  0.00000000000000E+00
DEBUG_STATS_RL:                   GNm1TRC.0023 S.D.=  0.00000000000000E+00
DEBUG_STATS_RL:                   PTRACER.0024  min= -2.45910501764687E-02
DEBUG_STATS_RL:                   PTRACER.0024  max=  1.41704478678021E-01
DEBUG_STATS_RL:                   PTRACER.0024 mean=  1.75041246694924E-04
DEBUG_STATS_RL:                   PTRACER.0024 S.D.=  1.77140495176577E-03
DEBUG_STATS_RL:                   GNm1TRC.0024  min=  0.00000000000000E+00
DEBUG_STATS_RL:                   GNm1TRC.0024  max=  0.00000000000000E+00
DEBUG_STATS_RL:                   GNm1TRC.0024 mean=  0.00000000000000E+00
DEBUG_STATS_RL:                   GNm1TRC.0024 S.D.=  0.00000000000000E+00
DEBUG_STATS_RL:                   PTRACER.0025  min= -7.38392133731077E-04
DEBUG_STATS_RL:                   PTRACER.0025  max=  2.21060122103081E-03
DEBUG_STATS_RL:                   PTRACER.0025 mean=  6.06539053702633E-07
DEBUG_STATS_RL:                   PTRACER.0025 S.D.=  3.25416414854387E-05
DEBUG_STATS_RL:                   GNm1TRC.0025  min=  0.00000000000000E+00
DEBUG_STATS_RL:                   GNm1TRC.0025  max=  0.00000000000000E+00
DEBUG_STATS_RL:                   GNm1TRC.0025 mean=  0.00000000000000E+00
DEBUG_STATS_RL:                   GNm1TRC.0025 S.D.=  0.00000000000000E+00
DEBUG_STATS_RL:                   PTRACER.0026  min= -2.03001130910401E-03
DEBUG_STATS_RL:                   PTRACER.0026  max=  2.64806528289002E-02
DEBUG_STATS_RL:                   PTRACER.0026 mean=  3.49004557344881E-04
DEBUG_STATS_RL:                   PTRACER.0026 S.D.=  1.69118198720262E-03
DEBUG_STATS_RL:                   GNm1TRC.0026  min=  0.00000000000000E+00
DEBUG_STATS_RL:                   GNm1TRC.0026  max=  0.00000000000000E+00
DEBUG_STATS_RL:                   GNm1TRC.0026 mean=  0.00000000000000E+00
DEBUG_STATS_RL:                   GNm1TRC.0026 S.D.=  0.00000000000000E+00
DEBUG_STATS_RL:                   PTRACER.0027  min= -3.04690123781330E+00
DEBUG_STATS_RL:                   PTRACER.0027  max=  6.34189962123467E+00
DEBUG_STATS_RL:                   PTRACER.0027 mean=  1.05035853065900E-02
DEBUG_STATS_RL:                   PTRACER.0027 S.D.=  1.47803717131853E-01
DEBUG_STATS_RL:                   GNm1TRC.0027  min=  0.00000000000000E+00
DEBUG_STATS_RL:                   GNm1TRC.0027  max=  0.00000000000000E+00
DEBUG_STATS_RL:                   GNm1TRC.0027 mean=  0.00000000000000E+00
DEBUG_STATS_RL:                   GNm1TRC.0027 S.D.=  0.00000000000000E+00
DEBUG_STATS_RL:                   PTRACER.0028  min= -1.78947061107207E+00
DEBUG_STATS_RL:                   PTRACER.0028  max=  3.38891809847727E+00
DEBUG_STATS_RL:                   PTRACER.0028 mean=  4.46709010749214E-03
DEBUG_STATS_RL:                   PTRACER.0028 S.D.=  5.99226071627533E-02
DEBUG_STATS_RL:                   GNm1TRC.0028  min=  0.00000000000000E+00
DEBUG_STATS_RL:                   GNm1TRC.0028  max=  0.00000000000000E+00
DEBUG_STATS_RL:                   GNm1TRC.0028 mean=  0.00000000000000E+00
DEBUG_STATS_RL:                   GNm1TRC.0028 S.D.=  0.00000000000000E+00
DEBUG_STATS_RL:                   PTRACER.0029  min= -5.90185204307007E-01
DEBUG_STATS_RL:                   PTRACER.0029  max=  8.99249201473173E-01
DEBUG_STATS_RL:                   PTRACER.0029 mean=  9.57226869888602E-04
DEBUG_STATS_RL:                   PTRACER.0029 S.D.=  1.25524364809538E-02
DEBUG_STATS_RL:                   GNm1TRC.0029  min=  0.00000000000000E+00
DEBUG_STATS_RL:                   GNm1TRC.0029  max=  0.00000000000000E+00
DEBUG_STATS_RL:                   GNm1TRC.0029 mean=  0.00000000000000E+00
DEBUG_STATS_RL:                   GNm1TRC.0029 S.D.=  0.00000000000000E+00
DEBUG_STATS_RL:                   PTRACER.0030  min= -1.77256750407563E-02
DEBUG_STATS_RL:                   PTRACER.0030  max=  7.11250146721443E-03
DEBUG_STATS_RL:                   PTRACER.0030 mean= -1.41277065099916E-06
DEBUG_STATS_RL:                   PTRACER.0030 S.D.=  2.04307308730422E-04
DEBUG_STATS_RL:                   GNm1TRC.0030  min=  0.00000000000000E+00
DEBUG_STATS_RL:                   GNm1TRC.0030  max=  0.00000000000000E+00
DEBUG_STATS_RL:                   GNm1TRC.0030 mean=  0.00000000000000E+00
DEBUG_STATS_RL:                   GNm1TRC.0030 S.D.=  0.00000000000000E+00
DEBUG_STATS_RL:                   PTRACER.0031  min= -4.87188240765105E-02
DEBUG_STATS_RL:                   PTRACER.0031  max=  3.84468872990743E-01
DEBUG_STATS_RL:                   PTRACER.0031 mean=  3.41014095909652E-03
DEBUG_STATS_RL:                   PTRACER.0031 S.D.=  1.85616445255149E-02
DEBUG_STATS_RL:                   GNm1TRC.0031  min=  0.00000000000000E+00
DEBUG_STATS_RL:                   GNm1TRC.0031  max=  0.00000000000000E+00
DEBUG_STATS_RL:                   GNm1TRC.0031 mean=  0.00000000000000E+00
DEBUG_STATS_RL:                   GNm1TRC.0031 S.D.=  0.00000000000000E+00
DEBUG_STATS_RL:                   PTRACER.0032  min=  1.57239064502176E+03
DEBUG_STATS_RL:                   PTRACER.0032  max=  2.50729106188880E+03
DEBUG_STATS_RL:                   PTRACER.0032 mean=  2.29723974672669E+03
DEBUG_STATS_RL:                   PTRACER.0032 S.D.=  9.84330030437579E+01
DEBUG_STATS_RL:                   GNm1TRC.0032  min=  0.00000000000000E+00
DEBUG_STATS_RL:                   GNm1TRC.0032  max=  0.00000000000000E+00
DEBUG_STATS_RL:                   GNm1TRC.0032 mean=  0.00000000000000E+00
DEBUG_STATS_RL:                   GNm1TRC.0032 S.D.=  0.00000000000000E+00
DEBUG_STATS_RL:                   PTRACER.0033  min= -4.48500181742307E+00
DEBUG_STATS_RL:                   PTRACER.0033  max=  1.00718288958685E+02
DEBUG_STATS_RL:                   PTRACER.0033 mean=  2.68461245147060E+00
DEBUG_STATS_RL:                   PTRACER.0033 S.D.=  8.25105042183933E+00
DEBUG_STATS_RL:                   GNm1TRC.0033  min=  0.00000000000000E+00
DEBUG_STATS_RL:                   GNm1TRC.0033  max=  0.00000000000000E+00
DEBUG_STATS_RL:                   GNm1TRC.0033 mean=  0.00000000000000E+00
DEBUG_STATS_RL:                   GNm1TRC.0033 S.D.=  0.00000000000000E+00
DEBUG_STATS_RL:                   PTRACER.0034  min= -6.20856452970337E-01
DEBUG_STATS_RL:                   PTRACER.0034  max=  2.63214922990505E+01
DEBUG_STATS_RL:                   PTRACER.0034 mean=  2.62526436113002E-01
DEBUG_STATS_RL:                   PTRACER.0034 S.D.=  5.21412238555247E-01
DEBUG_STATS_RL:                   GNm1TRC.0034  min=  0.00000000000000E+00
DEBUG_STATS_RL:                   GNm1TRC.0034  max=  0.00000000000000E+00
DEBUG_STATS_RL:                   GNm1TRC.0034 mean=  0.00000000000000E+00
DEBUG_STATS_RL:                   GNm1TRC.0034 S.D.=  0.00000000000000E+00
DEBUG_STATS_RL:                   PTRACER.0035  min= -3.16108979755492E-02
DEBUG_STATS_RL:                   PTRACER.0035  max=  3.82392043742965E+00
DEBUG_STATS_RL:                   PTRACER.0035 mean=  2.48107955290512E-02
DEBUG_STATS_RL:                   PTRACER.0035 S.D.=  6.37068503292152E-02
DEBUG_STATS_RL:                   GNm1TRC.0035  min=  0.00000000000000E+00
DEBUG_STATS_RL:                   GNm1TRC.0035  max=  0.00000000000000E+00
DEBUG_STATS_RL:                   GNm1TRC.0035 mean=  0.00000000000000E+00
DEBUG_STATS_RL:                   GNm1TRC.0035 S.D.=  0.00000000000000E+00
DEBUG_STATS_RL:                   PTRACER.0036  min=  1.64134407615292E+03
DEBUG_STATS_RL:                   PTRACER.0036  max=  2.72042430258406E+03
DEBUG_STATS_RL:                   PTRACER.0036 mean=  2.42787897710850E+03
DEBUG_STATS_RL:                   PTRACER.0036 S.D.=  6.40364601793760E+01
DEBUG_STATS_RL:                   GNm1TRC.0036  min=  0.00000000000000E+00
DEBUG_STATS_RL:                   GNm1TRC.0036  max=  0.00000000000000E+00
DEBUG_STATS_RL:                   GNm1TRC.0036 mean=  0.00000000000000E+00
DEBUG_STATS_RL:                   GNm1TRC.0036 S.D.=  0.00000000000000E+00
DEBUG_STATS_RL:                   PTRACER.0037  min= -5.33896191702679E+01
DEBUG_STATS_RL:                   PTRACER.0037  max=  4.64793651489038E+02
DEBUG_STATS_RL:                   PTRACER.0037 mean=  1.94228348813677E+02
DEBUG_STATS_RL:                   PTRACER.0037 S.D.=  6.54373275004361E+01
DEBUG_STATS_RL:                   GNm1TRC.0037  min=  0.00000000000000E+00
DEBUG_STATS_RL:                   GNm1TRC.0037  max=  0.00000000000000E+00
DEBUG_STATS_RL:                   GNm1TRC.0037 mean=  0.00000000000000E+00
DEBUG_STATS_RL:                   GNm1TRC.0037 S.D.=  0.00000000000000E+00
DEBUG_STATS_RL:                   PTRACER.0038  min= -4.89907151254796E-01
DEBUG_STATS_RL:                   PTRACER.0038  max=  6.59812364061319E+00
DEBUG_STATS_RL:                   PTRACER.0038 mean=  2.32403801945650E-02
DEBUG_STATS_RL:                   PTRACER.0038 S.D.=  2.10302310438086E-01
DEBUG_STATS_RL:                   GNm1TRC.0038  min=  0.00000000000000E+00
DEBUG_STATS_RL:                   GNm1TRC.0038  max=  0.00000000000000E+00
DEBUG_STATS_RL:                   GNm1TRC.0038 mean=  0.00000000000000E+00
DEBUG_STATS_RL:                   GNm1TRC.0038 S.D.=  0.00000000000000E+00
DEBUG_STATS_RL:                   PTRACER.0039  min= -1.51443741602623E+00
DEBUG_STATS_RL:                   PTRACER.0039  max=  1.75113129554938E+01
DEBUG_STATS_RL:                   PTRACER.0039 mean=  4.68420294079033E-02
DEBUG_STATS_RL:                   PTRACER.0039 S.D.=  4.78434535804443E-01
DEBUG_STATS_RL:                   GNm1TRC.0039  min=  0.00000000000000E+00
DEBUG_STATS_RL:                   GNm1TRC.0039  max=  0.00000000000000E+00
DEBUG_STATS_RL:                   GNm1TRC.0039 mean=  0.00000000000000E+00
DEBUG_STATS_RL:                   GNm1TRC.0039 S.D.=  0.00000000000000E+00
DEBUG_STATS_RL:                   PTRACER.0040  min=  0.00000000000000E+00
DEBUG_STATS_RL:                   PTRACER.0040  max=  0.00000000000000E+00
DEBUG_STATS_RL:                   PTRACER.0040 mean=  0.00000000000000E+00
DEBUG_STATS_RL:                   PTRACER.0040 S.D.=  0.00000000000000E+00
DEBUG_STATS_RL:                   GNm1TRC.0040  min=  0.00000000000000E+00
DEBUG_STATS_RL:                   GNm1TRC.0040  max=  0.00000000000000E+00
DEBUG_STATS_RL:                   GNm1TRC.0040 mean=  0.00000000000000E+00
DEBUG_STATS_RL:                   GNm1TRC.0040 S.D.=  0.00000000000000E+00
DEBUG_STATS_RL:                EtaN (DYNAMICS)  min= -1.47829401493073E+00
DEBUG_STATS_RL:                EtaN (DYNAMICS)  max=  9.66493010520935E-01
DEBUG_STATS_RL:                EtaN (DYNAMICS) mean= -1.58719619410821E-01
DEBUG_STATS_RL:                EtaN (DYNAMICS) S.D.=  6.39951514166154E-01
DEBUG_STATS_RL:                Uvel (DYNAMICS)  min= -2.38301202654839E-01
DEBUG_STATS_RL:                Uvel (DYNAMICS)  max=  1.89919561147690E-01
DEBUG_STATS_RL:                Uvel (DYNAMICS) mean=  4.34596969872428E-03
DEBUG_STATS_RL:                Uvel (DYNAMICS) S.D.=  2.22729535248782E-02
DEBUG_STATS_RL:                Vvel (DYNAMICS)  min= -2.17408701777458E-01
DEBUG_STATS_RL:                Vvel (DYNAMICS)  max=  1.49026080965996E-01
DEBUG_STATS_RL:                Vvel (DYNAMICS) mean=  2.04012565921164E-04
DEBUG_STATS_RL:                Vvel (DYNAMICS) S.D.=  1.29018089873914E-02
DEBUG_STATS_RL:                Wvel (DYNAMICS)  min= -5.43636469636994E-05
DEBUG_STATS_RL:                Wvel (DYNAMICS)  max=  5.22788935574831E-05
DEBUG_STATS_RL:                Wvel (DYNAMICS) mean=  1.15417846277439E-08
DEBUG_STATS_RL:                Wvel (DYNAMICS) S.D.=  2.64746611410843E-06
DEBUG_STATS_RL:               Theta (DYNAMICS)  min= -3.46751164312462E+00
DEBUG_STATS_RL:               Theta (DYNAMICS)  max=  3.02462411177576E+01
DEBUG_STATS_RL:               Theta (DYNAMICS) mean=  6.18025038891435E+00
DEBUG_STATS_RL:               Theta (DYNAMICS) S.D.=  6.76147799126129E+00
DEBUG_STATS_RL:                Salt (DYNAMICS)  min=  3.14845895423960E+01
DEBUG_STATS_RL:                Salt (DYNAMICS)  max=  3.75568400756261E+01
DEBUG_STATS_RL:                Salt (DYNAMICS) mean=  3.46619898303264E+01
DEBUG_STATS_RL:                Salt (DYNAMICS) S.D.=  4.90706794126934E-01
DEBUG_STATS_RL:                  Gu (DYNAMICS)  min= -2.38431666022248E-01
DEBUG_STATS_RL:                  Gu (DYNAMICS)  max=  1.90167900626712E-01
DEBUG_STATS_RL:                  Gu (DYNAMICS) mean=  4.31214705625864E-03
DEBUG_STATS_RL:                  Gu (DYNAMICS) S.D.=  2.23892033673350E-02
DEBUG_STATS_RL:                  Gv (DYNAMICS)  min= -2.17343944840221E-01
DEBUG_STATS_RL:                  Gv (DYNAMICS)  max=  1.47313857254541E-01
DEBUG_STATS_RL:                  Gv (DYNAMICS) mean=  7.58977849251302E-04
DEBUG_STATS_RL:                  Gv (DYNAMICS) S.D.=  1.29536624132846E-02
(PID.TID 0000.0001) SOLVE_FOR_PRESSURE: putPmEinXvector =    F
DEBUG_STATS_RL:    cg2d_b (SOLVE_FOR_PRESSURE)  min= -1.17274595623943E+05
DEBUG_STATS_RL:    cg2d_b (SOLVE_FOR_PRESSURE)  max=  9.59480471436014E+04
DEBUG_STATS_RL:    cg2d_b (SOLVE_FOR_PRESSURE) mean= -7.55371143050829E-06
DEBUG_STATS_RL:    cg2d_b (SOLVE_FOR_PRESSURE) S.D.=  4.84047574737364E+04
 cg2d: Sum(rhs),rhsMax =  -2.86432420892879E-07  8.25293688142886E+00
(PID.TID 0000.0001)  cg2d: iter=     1 ; resid.=  7.57241025548699E-02
(PID.TID 0000.0001)  cg2d: iter=     2 ; resid.=  1.88682750845314E-02
(PID.TID 0000.0001)  cg2d: iter=     3 ; resid.=  5.52088459939703E-03
(PID.TID 0000.0001)  cg2d: iter=     4 ; resid.=  1.59149145955859E-03
(PID.TID 0000.0001)  cg2d: iter=     5 ; resid.=  4.98116977669776E-04
(PID.TID 0000.0001)  cg2d: iter=     6 ; resid.=  1.47719225905965E-04
(PID.TID 0000.0001)  cg2d: iter=     7 ; resid.=  4.34525606877861E-05
(PID.TID 0000.0001)  cg2d: iter=     8 ; resid.=  1.29040279751600E-05
(PID.TID 0000.0001)  cg2d: iter=     9 ; resid.=  4.14122702224593E-06
(PID.TID 0000.0001)  cg2d: iter=    10 ; resid.=  1.35767125450216E-06
(PID.TID 0000.0001)  cg2d: iter=    11 ; resid.=  4.45296009817065E-07
(PID.TID 0000.0001)  cg2d: iter=    12 ; resid.=  1.52865175825564E-07
(PID.TID 0000.0001)  cg2d: iter=    13 ; resid.=  5.59500536453697E-08
(PID.TID 0000.0001)  cg2d: iter=    14 ; resid.=  2.08325164656653E-08
(PID.TID 0000.0001)  cg2d: iter=    15 ; resid.=  6.73613115057732E-09
(PID.TID 0000.0001)  cg2d: iter=    16 ; resid.=  1.96524289938884E-09
(PID.TID 0000.0001)  cg2d: iter=    17 ; resid.=  5.69589319456671E-10
(PID.TID 0000.0001)  cg2d: iter=    18 ; resid.=  1.82169523311060E-10
(PID.TID 0000.0001)  cg2d: iter=    19 ; resid.=  5.86634001240826E-11
(PID.TID 0000.0001)  cg2d: iter=    20 ; resid.=  2.14994965577135E-11
(PID.TID 0000.0001)  cg2d: iter=    21 ; resid.=  8.60265351306852E-12
(PID.TID 0000.0001)  cg2d: iter=    22 ; resid.=  2.88525800188740E-12
(PID.TID 0000.0001)  cg2d: iter=    23 ; resid.=  8.35217345706568E-13
(PID.TID 0000.0001)  cg2d: iter=    24 ; resid.=  2.49612707991893E-13
(PID.TID 0000.0001)  cg2d: iter=    25 ; resid.=  8.00009456486961E-14
DEBUG_STATS_RL:    cg2d_x (SOLVE_FOR_PRESSURE)  min= -1.43340725541581E+01
DEBUG_STATS_RL:    cg2d_x (SOLVE_FOR_PRESSURE)  max=  9.40898429350062E+00
DEBUG_STATS_RL:    cg2d_x (SOLVE_FOR_PRESSURE) mean= -1.55513903788863E+00
DEBUG_STATS_RL:    cg2d_x (SOLVE_FOR_PRESSURE) S.D.=  6.26272862311171E+00
(PID.TID 0000.0001)      cg2d_init_res =   3.83451121212076E-01
(PID.TID 0000.0001)      cg2d_iters(min,last) =      -1      25
(PID.TID 0000.0001)      cg2d_last_res =   8.00009456486961E-14
(PID.TID 0000.0001) // =======================================================
(PID.TID 0000.0001) // Begin MONITOR dynamic field statistics
(PID.TID 0000.0001) // =======================================================
(PID.TID 0000.0001) %MON time_tsnumber                =                     1
(PID.TID 0000.0001) %MON time_secondsf                =   9.0000000000000E+02
(PID.TID 0000.0001) %MON dynstat_eta_max              =   9.5912174245674E-01
(PID.TID 0000.0001) %MON dynstat_eta_min              =  -1.4611694754493E+00
(PID.TID 0000.0001) %MON dynstat_eta_mean             =   8.2368395096404E-11
(PID.TID 0000.0001) %MON dynstat_eta_sd               =   5.6362487516869E-01
(PID.TID 0000.0001) %MON dynstat_eta_del2             =   1.0707611744975E-03
(PID.TID 0000.0001) %MON dynstat_uvel_max             =   1.9014173931713E-01
(PID.TID 0000.0001) %MON dynstat_uvel_min             =  -2.3752935460439E-01
(PID.TID 0000.0001) %MON dynstat_uvel_mean            =   1.8560974174589E-03
(PID.TID 0000.0001) %MON dynstat_uvel_sd              =   1.3061816323588E-02
(PID.TID 0000.0001) %MON dynstat_uvel_del2            =   4.9224880949589E-05
(PID.TID 0000.0001) %MON dynstat_vvel_max             =   1.4703240308685E-01
(PID.TID 0000.0001) %MON dynstat_vvel_min             =  -2.1691517746782E-01
(PID.TID 0000.0001) %MON dynstat_vvel_mean            =  -3.8178732728583E-04
(PID.TID 0000.0001) %MON dynstat_vvel_sd              =   7.4167023790666E-03
(PID.TID 0000.0001) %MON dynstat_vvel_del2            =   3.8641253176013E-05
(PID.TID 0000.0001) %MON dynstat_wvel_max             =   5.1427315970080E-05
(PID.TID 0000.0001) %MON dynstat_wvel_min             =  -7.7328988435824E-05
(PID.TID 0000.0001) %MON dynstat_wvel_mean            =   2.8731521973943E-16
(PID.TID 0000.0001) %MON dynstat_wvel_sd              =   3.4669126578701E-06
(PID.TID 0000.0001) %MON dynstat_wvel_del2            =   3.8082720498898E-08
(PID.TID 0000.0001) %MON dynstat_theta_max            =   3.0246241117758E+01
(PID.TID 0000.0001) %MON dynstat_theta_min            =  -3.4675116431246E+00
(PID.TID 0000.0001) %MON dynstat_theta_mean           =   3.8021187512228E+00
(PID.TID 0000.0001) %MON dynstat_theta_sd             =   4.5122719516828E+00
(PID.TID 0000.0001) %MON dynstat_theta_del2           =   2.5989958597679E-03
(PID.TID 0000.0001) %MON dynstat_salt_max             =   3.7556840075626E+01
(PID.TID 0000.0001) %MON dynstat_salt_min             =   3.1484589542396E+01
(PID.TID 0000.0001) %MON dynstat_salt_mean            =   3.4614647598010E+01
(PID.TID 0000.0001) %MON dynstat_salt_sd              =   3.1408675925501E-01
(PID.TID 0000.0001) %MON dynstat_salt_del2            =   4.0547233442654E-04
(PID.TID 0000.0001) %MON forcing_qnet_max             =   3.5106161316986E+02
(PID.TID 0000.0001) %MON forcing_qnet_min             =  -3.3217430683864E+02
(PID.TID 0000.0001) %MON forcing_qnet_mean            =  -8.2628564271626E+01
(PID.TID 0000.0001) %MON forcing_qnet_sd              =   9.8255467168891E+01
(PID.TID 0000.0001) %MON forcing_qnet_del2            =   5.8421366527623E-01
(PID.TID 0000.0001) %MON forcing_qsw_max              =   3.3121876763925E+01
(PID.TID 0000.0001) %MON forcing_qsw_min              =  -3.5303847682555E+02
(PID.TID 0000.0001) %MON forcing_qsw_mean             =  -1.9661044339220E+02
(PID.TID 0000.0001) %MON forcing_qsw_sd               =   7.3861093180743E+01
(PID.TID 0000.0001) %MON forcing_qsw_del2             =   3.3366459753839E-01
(PID.TID 0000.0001) %MON forcing_empmr_max            =   8.3197948087081E-04
(PID.TID 0000.0001) %MON forcing_empmr_min            =  -6.3499828181685E-04
(PID.TID 0000.0001) %MON forcing_empmr_mean           =  -1.4952499263767E-05
(PID.TID 0000.0001) %MON forcing_empmr_sd             =   4.3660914427327E-05
(PID.TID 0000.0001) %MON forcing_empmr_del2           =   8.2847703913337E-07
(PID.TID 0000.0001) %MON forcing_fu_max               =   1.3089536730952E-01
(PID.TID 0000.0001) %MON forcing_fu_min               =  -1.1231770189011E-01
(PID.TID 0000.0001) %MON forcing_fu_mean              =  -4.3352058263864E-03
(PID.TID 0000.0001) %MON forcing_fu_sd                =   4.0503766527623E-02
(PID.TID 0000.0001) %MON forcing_fu_del2              =   1.3967252795316E-04
(PID.TID 0000.0001) %MON forcing_fv_max               =   9.4384621287737E-02
(PID.TID 0000.0001) %MON forcing_fv_min               =  -8.4481130405443E-02
(PID.TID 0000.0001) %MON forcing_fv_mean              =  -3.3431885339760E-03
(PID.TID 0000.0001) %MON forcing_fv_sd                =   1.7498300049943E-02
(PID.TID 0000.0001) %MON forcing_fv_del2              =   8.2730185002158E-05
(PID.TID 0000.0001) %MON trAdv_CFL_u_max              =   6.9530366268499E-04
(PID.TID 0000.0001) %MON trAdv_CFL_v_max              =   6.2526062972989E-04
(PID.TID 0000.0001) %MON trAdv_CFL_w_max              =   3.0073132451988E-04
(PID.TID 0000.0001) %MON advcfl_uvel_max              =   6.9591613327273E-04
(PID.TID 0000.0001) %MON advcfl_vvel_max              =   6.2434281601193E-04
(PID.TID 0000.0001) %MON advcfl_wvel_max              =   2.7838435836897E-03
(PID.TID 0000.0001) %MON advcfl_W_hf_max              =   1.2654063613049E-03
(PID.TID 0000.0001) %MON pe_b_mean                    =   4.0943408053231E-04
(PID.TID 0000.0001) %MON ke_max                       =   3.1380473361485E-02
(PID.TID 0000.0001) %MON ke_mean                      =   1.0611987040119E-04
(PID.TID 0000.0001) %MON ke_vol                       =   1.2571476858570E+18
(PID.TID 0000.0001) %MON vort_r_min                   =  -9.1550924333453E-07
(PID.TID 0000.0001) %MON vort_r_max                   =   9.9125751049547E-07
(PID.TID 0000.0001) %MON vort_a_mean                  =  -2.4002453570026E-05
(PID.TID 0000.0001) %MON vort_a_sd                    =   7.3138176055498E-05
(PID.TID 0000.0001) %MON vort_p_mean                  =  -2.8585773838204E-05
(PID.TID 0000.0001) %MON vort_p_sd                    =   1.1453379817665E-04
(PID.TID 0000.0001) %MON surfExpan_theta_mean         =  -6.8833385036858E-06
(PID.TID 0000.0001) %MON surfExpan_salt_mean          =  -5.7018188781197E-07
(PID.TID 0000.0001) // =======================================================
(PID.TID 0000.0001) // End MONITOR dynamic field statistics
(PID.TID 0000.0001) // =======================================================
(PID.TID 0000.0001) // =======================================================
(PID.TID 0000.0001) // Begin MONITOR SEAICE statistics
(PID.TID 0000.0001) // =======================================================
(PID.TID 0000.0001) %MON seaice_tsnumber              =                     1
(PID.TID 0000.0001) %MON seaice_time_sec              =   9.0000000000000E+02
(PID.TID 0000.0001) %MON seaice_uice_max              =   4.0000000000000E-01
(PID.TID 0000.0001) %MON seaice_uice_min              =  -4.0000000000000E-01
(PID.TID 0000.0001) %MON seaice_uice_mean             =  -2.4291443579457E-02
(PID.TID 0000.0001) %MON seaice_uice_sd               =   2.2192377736463E-01
(PID.TID 0000.0001) %MON seaice_uice_del2             =   8.4297695837051E-04
(PID.TID 0000.0001) %MON seaice_vice_max              =   4.0000000000000E-01
(PID.TID 0000.0001) %MON seaice_vice_min              =  -3.9589721946173E-01
(PID.TID 0000.0001) %MON seaice_vice_mean             =  -1.3255827396631E-02
(PID.TID 0000.0001) %MON seaice_vice_sd               =   9.1433272476159E-02
(PID.TID 0000.0001) %MON seaice_vice_del2             =   5.0501387214140E-04
(PID.TID 0000.0001) %MON seaice_area_max              =   9.5000000000000E-01
(PID.TID 0000.0001) %MON seaice_area_min              =   0.0000000000000E+00
(PID.TID 0000.0001) %MON seaice_area_mean             =   4.7031435596433E-03
(PID.TID 0000.0001) %MON seaice_area_sd               =   6.6658699429993E-02
(PID.TID 0000.0001) %MON seaice_area_del2             =   1.9449014649076E-03
(PID.TID 0000.0001) %MON seaice_heff_max              =   1.0003316881242E+00
(PID.TID 0000.0001) %MON seaice_heff_min              =   0.0000000000000E+00
(PID.TID 0000.0001) %MON seaice_heff_mean             =   4.9487107612648E-03
(PID.TID 0000.0001) %MON seaice_heff_sd               =   7.0161146580617E-02
(PID.TID 0000.0001) %MON seaice_heff_del2             =   2.0478552770876E-03
(PID.TID 0000.0001) %MON seaice_hsnow_max             =   2.0009659414065E-01
(PID.TID 0000.0001) %MON seaice_hsnow_min             =   0.0000000000000E+00
(PID.TID 0000.0001) %MON seaice_hsnow_mean            =   9.8971248748309E-04
(PID.TID 0000.0001) %MON seaice_hsnow_sd              =   1.4034726609363E-02
(PID.TID 0000.0001) %MON seaice_hsnow_del2            =   4.0974328241504E-04
(PID.TID 0000.0001) // =======================================================
(PID.TID 0000.0001) // End MONITOR SEAICE statistics
(PID.TID 0000.0001) // =======================================================
(PID.TID 0000.0001) // =======================================================
(PID.TID 0000.0001) // Begin MONITOR ptracer field statistics
(PID.TID 0000.0001) // =======================================================
(PID.TID 0000.0001) %MON trcstat_ptracer01_max        =   3.5229177486145E+00
(PID.TID 0000.0001) %MON trcstat_ptracer01_min        =  -2.8357387025926E-01
(PID.TID 0000.0001) %MON trcstat_ptracer01_mean       =   2.1995425782890E+00
(PID.TID 0000.0001) %MON trcstat_ptracer01_sd         =   5.6158276703325E-01
(PID.TID 0000.0001) %MON trcstat_ptracer01_del2       =   7.9668027054691E-04
(PID.TID 0000.0001) %MON trcstat_ptracer02_max        =   4.8723720698065E+01
(PID.TID 0000.0001) %MON trcstat_ptracer02_min        =  -4.5794323102246E+00
(PID.TID 0000.0001) %MON trcstat_ptracer02_mean       =   3.1443341245892E+01
(PID.TID 0000.0001) %MON trcstat_ptracer02_sd         =   7.7588702026051E+00
(PID.TID 0000.0001) %MON trcstat_ptracer02_del2       =   1.1950428615471E-02
(PID.TID 0000.0001) %MON trcstat_ptracer03_max        =   1.0597421118916E-03
(PID.TID 0000.0001) %MON trcstat_ptracer03_min        =  -1.3389134471251E-04
(PID.TID 0000.0001) %MON trcstat_ptracer03_mean       =   5.7796373038423E-04
(PID.TID 0000.0001) %MON trcstat_ptracer03_sd         =   1.2483160082004E-04
(PID.TID 0000.0001) %MON trcstat_ptracer03_del2       =   5.1327684185026E-07
(PID.TID 0000.0001) %MON trcstat_ptracer04_max        =   1.9892598025739E+02
(PID.TID 0000.0001) %MON trcstat_ptracer04_min        =  -2.5403082913282E+01
(PID.TID 0000.0001) %MON trcstat_ptracer04_mean       =   9.1188441023762E+01
(PID.TID 0000.0001) %MON trcstat_ptracer04_sd         =   4.6074030762156E+01
(PID.TID 0000.0001) %MON trcstat_ptracer04_del2       =   3.5901702074834E-02
(PID.TID 0000.0001) %MON trcstat_ptracer05_max        =   5.6655047661543E-01
(PID.TID 0000.0001) %MON trcstat_ptracer05_min        =  -1.8241351884201E-02
(PID.TID 0000.0001) %MON trcstat_ptracer05_mean       =   2.0585513652670E-03
(PID.TID 0000.0001) %MON trcstat_ptracer05_sd         =   1.7221796481834E-02
(PID.TID 0000.0001) %MON trcstat_ptracer05_del2       =   1.1471942081483E-04
(PID.TID 0000.0001) %MON trcstat_ptracer06_max        =   9.0648076258469E+00
(PID.TID 0000.0001) %MON trcstat_ptracer06_min        =  -2.9186163014722E-01
(PID.TID 0000.0001) %MON trcstat_ptracer06_mean       =   3.2936821844271E-02
(PID.TID 0000.0001) %MON trcstat_ptracer06_sd         =   2.7554874370934E-01
(PID.TID 0000.0001) %MON trcstat_ptracer06_del2       =   1.8355107330373E-03
(PID.TID 0000.0001) %MON trcstat_ptracer07_max        =   5.6655046963240E-04
(PID.TID 0000.0001) %MON trcstat_ptracer07_min        =  -1.8241352669549E-05
(PID.TID 0000.0001) %MON trcstat_ptracer07_mean       =   2.0585513638409E-06
(PID.TID 0000.0001) %MON trcstat_ptracer07_sd         =   1.7221796453907E-05
(PID.TID 0000.0001) %MON trcstat_ptracer07_del2       =   1.1471942090823E-07
(PID.TID 0000.0001) %MON trcstat_ptracer08_max        =   5.5024259012710E-02
(PID.TID 0000.0001) %MON trcstat_ptracer08_min        =  -4.0825596558764E-03
(PID.TID 0000.0001) %MON trcstat_ptracer08_mean       =   3.9180309100689E-05
(PID.TID 0000.0001) %MON trcstat_ptracer08_sd         =   7.8352812648222E-04
(PID.TID 0000.0001) %MON trcstat_ptracer08_del2       =   7.9079305754471E-06
(PID.TID 0000.0001) %MON trcstat_ptracer09_max        =   8.8038814420335E-01
(PID.TID 0000.0001) %MON trcstat_ptracer09_min        =  -6.5320954494022E-02
(PID.TID 0000.0001) %MON trcstat_ptracer09_mean       =   6.2688494561402E-04
(PID.TID 0000.0001) %MON trcstat_ptracer09_sd         =   1.2536450023718E-02
(PID.TID 0000.0001) %MON trcstat_ptracer09_del2       =   1.2652688920715E-04
(PID.TID 0000.0001) %MON trcstat_ptracer10_max        =   5.5024259216346E-05
(PID.TID 0000.0001) %MON trcstat_ptracer10_min        =  -4.0825597031687E-06
(PID.TID 0000.0001) %MON trcstat_ptracer10_mean       =   3.9180309160576E-08
(PID.TID 0000.0001) %MON trcstat_ptracer10_sd         =   7.8352812967417E-07
(PID.TID 0000.0001) %MON trcstat_ptracer10_del2       =   7.9079307354461E-09
(PID.TID 0000.0001) %MON trcstat_ptracer11_max        =   1.9119912772313E-02
(PID.TID 0000.0001) %MON trcstat_ptracer11_min        =  -1.2039480853025E-03
(PID.TID 0000.0001) %MON trcstat_ptracer11_mean       =   6.9561807756790E-06
(PID.TID 0000.0001) %MON trcstat_ptracer11_sd         =   1.9406216500760E-04
(PID.TID 0000.0001) %MON trcstat_ptracer11_del2       =   2.3359949328042E-06
(PID.TID 0000.0001) %MON trcstat_ptracer12_max        =   1.4600945456740E-01
(PID.TID 0000.0001) %MON trcstat_ptracer12_min        =  -1.2620312358928E-02
(PID.TID 0000.0001) %MON trcstat_ptracer12_mean       =   7.0242920016620E-05
(PID.TID 0000.0001) %MON trcstat_ptracer12_sd         =   1.6986372680126E-03
(PID.TID 0000.0001) %MON trcstat_ptracer12_del2       =   2.1132720066824E-05
(PID.TID 0000.0001) %MON trcstat_ptracer13_max        =   2.3361512730784E+00
(PID.TID 0000.0001) %MON trcstat_ptracer13_min        =  -2.0192499774285E-01
(PID.TID 0000.0001) %MON trcstat_ptracer13_mean       =   1.1238867202706E-03
(PID.TID 0000.0001) %MON trcstat_ptracer13_sd         =   2.7178196288203E-02
(PID.TID 0000.0001) %MON trcstat_ptracer13_del2       =   3.3812352106919E-04
(PID.TID 0000.0001) %MON trcstat_ptracer14_max        =   1.4600946341137E-04
(PID.TID 0000.0001) %MON trcstat_ptracer14_min        =  -1.2620312038844E-05
(PID.TID 0000.0001) %MON trcstat_ptracer14_mean       =   7.0242920275373E-08
(PID.TID 0000.0001) %MON trcstat_ptracer14_sd         =   1.6986372859650E-06
(PID.TID 0000.0001) %MON trcstat_ptracer14_del2       =   2.1132720263158E-08
(PID.TID 0000.0001) %MON trcstat_ptracer15_max        =   9.2317189585227E-01
(PID.TID 0000.0001) %MON trcstat_ptracer15_min        =  -3.7252922800134E-02
(PID.TID 0000.0001) %MON trcstat_ptracer15_mean       =   4.1795230952879E-04
(PID.TID 0000.0001) %MON trcstat_ptracer15_sd         =   9.9527463871682E-03
(PID.TID 0000.0001) %MON trcstat_ptracer15_del2       =   1.4018527208507E-04
(PID.TID 0000.0001) %MON trcstat_ptracer16_max        =   1.3600087589447E-01
(PID.TID 0000.0001) %MON trcstat_ptracer16_min        =  -4.9351484301123E-03
(PID.TID 0000.0001) %MON trcstat_ptracer16_mean       =   6.2398810658411E-04
(PID.TID 0000.0001) %MON trcstat_ptracer16_sd         =   1.6659891709699E-03
(PID.TID 0000.0001) %MON trcstat_ptracer16_del2       =   1.5250911512620E-05
(PID.TID 0000.0001) %MON trcstat_ptracer17_max        =   2.1761430794777E+00
(PID.TID 0000.0001) %MON trcstat_ptracer17_min        =  -7.8962374881797E-02
(PID.TID 0000.0001) %MON trcstat_ptracer17_mean       =   9.9906244941712E-03
(PID.TID 0000.0001) %MON trcstat_ptracer17_sd         =   2.6675184525278E-02
(PID.TID 0000.0001) %MON trcstat_ptracer17_del2       =   2.4410943598699E-04
(PID.TID 0000.0001) %MON trcstat_ptracer18_max        =   1.3600893766495E-04
(PID.TID 0000.0001) %MON trcstat_ptracer18_min        =  -4.9351483391785E-06
(PID.TID 0000.0001) %MON trcstat_ptracer18_mean       =   6.2441403056407E-07
(PID.TID 0000.0001) %MON trcstat_ptracer18_sd         =   1.6671990232190E-06
(PID.TID 0000.0001) %MON trcstat_ptracer18_del2       =   1.5256839685245E-08
(PID.TID 0000.0001) %MON trcstat_ptracer19_max        =   1.9607902624510E+01
(PID.TID 0000.0001) %MON trcstat_ptracer19_min        =  -2.9002844436733E-01
(PID.TID 0000.0001) %MON trcstat_ptracer19_mean       =   1.3464152239014E-01
(PID.TID 0000.0001) %MON trcstat_ptracer19_sd         =   3.4127757112839E-01
(PID.TID 0000.0001) %MON trcstat_ptracer19_del2       =   2.0139528463159E-03
(PID.TID 0000.0001) %MON trcstat_ptracer20_max        =   3.2696083598504E-01
(PID.TID 0000.0001) %MON trcstat_ptracer20_min        =  -2.8771716247054E-02
(PID.TID 0000.0001) %MON trcstat_ptracer20_mean       =   5.1331670143761E-04
(PID.TID 0000.0001) %MON trcstat_ptracer20_sd         =   5.8916750212162E-03
(PID.TID 0000.0001) %MON trcstat_ptracer20_del2       =   6.6544070174324E-05
(PID.TID 0000.0001) %MON trcstat_ptracer21_max        =   8.5327404026224E-01
(PID.TID 0000.0001) %MON trcstat_ptracer21_min        =  -1.2485827828245E-01
(PID.TID 0000.0001) %MON trcstat_ptracer21_mean       =   3.2435237845813E-03
(PID.TID 0000.0001) %MON trcstat_ptracer21_sd         =   2.2871761211931E-02
(PID.TID 0000.0001) %MON trcstat_ptracer21_del2       =   2.1788681515216E-04
(PID.TID 0000.0001) %MON trcstat_ptracer22_max        =   1.7364472742580E-01
(PID.TID 0000.0001) %MON trcstat_ptracer22_min        =  -5.0780922099365E-02
(PID.TID 0000.0001) %MON trcstat_ptracer22_mean       =   6.9389212456194E-05
(PID.TID 0000.0001) %MON trcstat_ptracer22_sd         =   1.9240689975566E-03
(PID.TID 0000.0001) %MON trcstat_ptracer22_del2       =   4.2795724515503E-05
(PID.TID 0000.0001) %MON trcstat_ptracer23_max        =   1.0320005569697E-01
(PID.TID 0000.0001) %MON trcstat_ptracer23_min        =  -2.9824426459286E-02
(PID.TID 0000.0001) %MON trcstat_ptracer23_mean       =   3.2190444912226E-05
(PID.TID 0000.0001) %MON trcstat_ptracer23_sd         =   7.7868396264827E-04
(PID.TID 0000.0001) %MON trcstat_ptracer23_del2       =   2.0286461805693E-05
(PID.TID 0000.0001) %MON trcstat_ptracer24_max        =   1.4161670136915E-01
(PID.TID 0000.0001) %MON trcstat_ptracer24_min        =  -2.4591050176469E-02
(PID.TID 0000.0001) %MON trcstat_ptracer24_mean       =   3.2619185295601E-05
(PID.TID 0000.0001) %MON trcstat_ptracer24_sd         =   7.1952017425607E-04
(PID.TID 0000.0001) %MON trcstat_ptracer24_del2       =   1.5017649839993E-05
(PID.TID 0000.0001) %MON trcstat_ptracer25_max        =   2.2082985094231E-03
(PID.TID 0000.0001) %MON trcstat_ptracer25_min        =  -7.3839213373108E-04
(PID.TID 0000.0001) %MON trcstat_ptracer25_mean       =   1.2627364887198E-07
(PID.TID 0000.0001) %MON trcstat_ptracer25_sd         =   1.4903006058887E-05
(PID.TID 0000.0001) %MON trcstat_ptracer25_del2       =   1.9774626586370E-07
(PID.TID 0000.0001) %MON trcstat_ptracer26_max        =   2.6489940195181E-02
(PID.TID 0000.0001) %MON trcstat_ptracer26_min        =  -2.0300113091040E-03
(PID.TID 0000.0001) %MON trcstat_ptracer26_mean       =   6.9517680550274E-05
(PID.TID 0000.0001) %MON trcstat_ptracer26_sd         =   7.6911534934182E-04
(PID.TID 0000.0001) %MON trcstat_ptracer26_del2       =   5.2221199261068E-06
(PID.TID 0000.0001) %MON trcstat_ptracer27_max        =   6.3349803727815E+00
(PID.TID 0000.0001) %MON trcstat_ptracer27_min        =  -3.0469012378133E+00
(PID.TID 0000.0001) %MON trcstat_ptracer27_mean       =   1.4926783001172E-03
(PID.TID 0000.0001) %MON trcstat_ptracer27_sd         =   4.9565085278628E-02
(PID.TID 0000.0001) %MON trcstat_ptracer27_del2       =   1.2792278194559E-03
(PID.TID 0000.0001) %MON trcstat_ptracer28_max        =   3.3861825208464E+00
(PID.TID 0000.0001) %MON trcstat_ptracer28_min        =  -1.7894706110721E+00
(PID.TID 0000.0001) %MON trcstat_ptracer28_mean       =   7.2890542146031E-04
(PID.TID 0000.0001) %MON trcstat_ptracer28_sd         =   2.0312955083528E-02
(PID.TID 0000.0001) %MON trcstat_ptracer28_del2       =   6.0242612736134E-04
(PID.TID 0000.0001) %MON trcstat_ptracer29_max        =   9.0017211142563E-01
(PID.TID 0000.0001) %MON trcstat_ptracer29_min        =  -5.9018520430701E-01
(PID.TID 0000.0001) %MON trcstat_ptracer29_mean       =   1.8134565453807E-04
(PID.TID 0000.0001) %MON trcstat_ptracer29_sd         =   5.1774390276884E-03
(PID.TID 0000.0001) %MON trcstat_ptracer29_del2       =   1.2754808436900E-04
(PID.TID 0000.0001) %MON trcstat_ptracer30_max        =   7.1013881772291E-03
(PID.TID 0000.0001) %MON trcstat_ptracer30_min        =  -1.7725675040756E-02
(PID.TID 0000.0001) %MON trcstat_ptracer30_mean       =  -2.8966065511995E-07
(PID.TID 0000.0001) %MON trcstat_ptracer30_sd         =   9.3134795435012E-05
(PID.TID 0000.0001) %MON trcstat_ptracer30_del2       =   1.4302043936826E-06
(PID.TID 0000.0001) %MON trcstat_ptracer31_max        =   3.8476732475888E-01
(PID.TID 0000.0001) %MON trcstat_ptracer31_min        =  -4.8718824076511E-02
(PID.TID 0000.0001) %MON trcstat_ptracer31_mean       =   6.8472783481491E-04
(PID.TID 0000.0001) %MON trcstat_ptracer31_sd         =   8.4708108112004E-03
(PID.TID 0000.0001) %MON trcstat_ptracer31_del2       =   7.2714736312056E-05
(PID.TID 0000.0001) %MON trcstat_ptracer32_max        =   2.5072910667798E+03
(PID.TID 0000.0001) %MON trcstat_ptracer32_min        =   1.5723932449535E+03
(PID.TID 0000.0001) %MON trcstat_ptracer32_mean       =   2.3412051227677E+03
(PID.TID 0000.0001) %MON trcstat_ptracer32_sd         =   7.0739996862933E+01
(PID.TID 0000.0001) %MON trcstat_ptracer32_del2       =   8.7038138145646E-02
(PID.TID 0000.0001) %MON trcstat_ptracer33_max        =   1.0073536535472E+02
(PID.TID 0000.0001) %MON trcstat_ptracer33_min        =  -4.4849987262355E+00
(PID.TID 0000.0001) %MON trcstat_ptracer33_mean       =   4.9148273428280E-01
(PID.TID 0000.0001) %MON trcstat_ptracer33_sd         =   3.4659753774505E+00
(PID.TID 0000.0001) %MON trcstat_ptracer33_del2       =   1.9404263567745E-02
(PID.TID 0000.0001) %MON trcstat_ptracer34_max        =   2.6281533535881E+01
(PID.TID 0000.0001) %MON trcstat_ptracer34_min        =  -6.2085644697317E-01
(PID.TID 0000.0001) %MON trcstat_ptracer34_mean       =   1.8756712151732E-01
(PID.TID 0000.0001) %MON trcstat_ptracer34_sd         =   3.2820070330178E-01
(PID.TID 0000.0001) %MON trcstat_ptracer34_del2       =   3.0724649364324E-03
(PID.TID 0000.0001) %MON trcstat_ptracer35_max        =   3.8154750592833E+00
(PID.TID 0000.0001) %MON trcstat_ptracer35_min        =  -3.1610078186966E-02
(PID.TID 0000.0001) %MON trcstat_ptracer35_mean       =   2.6569659901378E-02
(PID.TID 0000.0001) %MON trcstat_ptracer35_sd         =   5.3547507058825E-02
(PID.TID 0000.0001) %MON trcstat_ptracer35_del2       =   4.3888818589443E-04
(PID.TID 0000.0001) %MON trcstat_ptracer36_max        =   2.7204243026102E+03
(PID.TID 0000.0001) %MON trcstat_ptracer36_min        =   1.6413436412717E+03
(PID.TID 0000.0001) %MON trcstat_ptracer36_mean       =   2.4566175350151E+03
(PID.TID 0000.0001) %MON trcstat_ptracer36_sd         =   5.3616581660354E+01
(PID.TID 0000.0001) %MON trcstat_ptracer36_del2       =   6.6296861351765E-02
(PID.TID 0000.0001) %MON trcstat_ptracer37_max        =   4.6478931757624E+02
(PID.TID 0000.0001) %MON trcstat_ptracer37_min        =  -5.3389611804369E+01
(PID.TID 0000.0001) %MON trcstat_ptracer37_mean       =   1.8800693276106E+02
(PID.TID 0000.0001) %MON trcstat_ptracer37_sd         =   5.4474708138636E+01
(PID.TID 0000.0001) %MON trcstat_ptracer37_del2       =   8.8709237245099E-02
(PID.TID 0000.0001) %MON trcstat_ptracer38_max        =   6.6029110517432E+00
(PID.TID 0000.0001) %MON trcstat_ptracer38_min        =  -4.8990715125480E-01
(PID.TID 0000.0001) %MON trcstat_ptracer38_mean       =   4.7016371080121E-03
(PID.TID 0000.0001) %MON trcstat_ptracer38_sd         =   9.4023375820328E-02
(PID.TID 0000.0001) %MON trcstat_ptracer38_del2       =   9.4895168420917E-04
(PID.TID 0000.0001) %MON trcstat_ptracer39_max        =   1.7521134905669E+01
(PID.TID 0000.0001) %MON trcstat_ptracer39_min        =  -1.5144374160262E+00
(PID.TID 0000.0001) %MON trcstat_ptracer39_mean       =   8.4291504154025E-03
(PID.TID 0000.0001) %MON trcstat_ptracer39_sd         =   2.0383647294720E-01
(PID.TID 0000.0001) %MON trcstat_ptracer39_del2       =   2.5359264096105E-03
(PID.TID 0000.0001) // =======================================================
(PID.TID 0000.0001) // End MONITOR ptracers field statistics
(PID.TID 0000.0001) // =======================================================
 Computing Diagnostic #     23  ETAN         Counter:       1   Parms: SM      M1      
(PID.TID 0000.0001)  MDS_WRITE_FIELD: it,rec,kS,kL,kH=       0    -1  15   1   1 file=ETAN.0000000000
 Computing Diagnostic #    202  EXFapco2     Counter:       1   Parms: SM      U1      
(PID.TID 0000.0001)  MDS_WRITE_FIELD: it,rec,kS,kL,kH=       0    -1  15   1   1 file=EXFapco2snap.0000000000
 Computing Diagnostic #     26  THETA        Counter:       1   Parms: SMR     MR      
(PID.TID 0000.0001)  MDS_WRITE_FIELD: it,rec,kS,kL,kH=       0    -1  15   1  15 file=snapDiag.0000000000
 Computing Diagnostic #     27  SALT         Counter:       1   Parms: SMR     MR      
(PID.TID 0000.0001)  MDS_WRITE_FIELD: it,rec,kS,kL,kH=       0    -2  15   1  15 file=snapDiag.0000000000
 Computing Diagnostic #    632  TRAC32       Counter:       1   Parms: SMR     MR      
(PID.TID 0000.0001)  MDS_WRITE_FIELD: it,rec,kS,kL,kH=       0    -3  15   1  15 file=snapDiag.0000000000
 Computing Diagnostic #    684  TRAC36       Counter:       1   Parms: SMR     MR      
(PID.TID 0000.0001)  MDS_WRITE_FIELD: it,rec,kS,kL,kH=       0    -4  15   1  15 file=snapDiag.0000000000
 Computing Diagnostic #    229  TRAC01       Counter:       1   Parms: SMR     MR      
(PID.TID 0000.0001)  MDS_WRITE_FIELD: it,rec,kS,kL,kH=       0    -5  15   1  15 file=snapDiag.0000000000
(PID.TID 0000.0001)  write diagnostics summary to file: diagnostics_status.0000000001.txt
(PID.TID 0000.0001) EXF_SET_FLD: processing field "apco2",  file: apCO2_2000
(PID.TID 0000.0001) EXF_SET_FLD:   myIter, count0, count1:         1     12      1
(PID.TID 0000.0001) EXF_SET_FLD:   first, changed, fac:   F   F   0.499663978E+00
(PID.TID 0000.0001) EXF_SET_UV: processing fields "uwind" & "vwind"
(PID.TID 0000.0001) EXF_SET_UV:   files: EIG_u10m_2000 & EIG_v10m_2000
(PID.TID 0000.0001) EXF_SET_UV:   myIter, count0, count1:         1     12      1
(PID.TID 0000.0001) EXF_SET_UV:   first, changed, fac:   F   F   0.499663978E+00
(PID.TID 0000.0001) EXF_SET_FLD: processing field "atemp",  file: EIG_tmp2m_degC_plus_ECCO_v4r1_ctrl_2000
(PID.TID 0000.0001) EXF_SET_FLD:   myIter, count0, count1:         1     12      1
(PID.TID 0000.0001) EXF_SET_FLD:   first, changed, fac:   F   F   0.499663978E+00
(PID.TID 0000.0001) EXF_SET_FLD: processing field "aqh",  file: EIG_spfh2m_plus_ECCO_v4r1_ctrl_2000
(PID.TID 0000.0001) EXF_SET_FLD:   myIter, count0, count1:         1     12      1
(PID.TID 0000.0001) EXF_SET_FLD:   first, changed, fac:   F   F   0.499663978E+00
(PID.TID 0000.0001) EXF_SET_FLD: processing field "precip",  file: EIG_rain_plus_ECCO_v4r1_ctrl_2000
(PID.TID 0000.0001) EXF_SET_FLD:   myIter, count0, count1:         1     12      1
(PID.TID 0000.0001) EXF_SET_FLD:   first, changed, fac:   F   F   0.499663978E+00
(PID.TID 0000.0001) EXF_SET_FLD: processing field "swdown",  file: EIG_dsw_plus_ECCO_v4r1_ctrl_2000
(PID.TID 0000.0001) EXF_SET_FLD:   myIter, count0, count1:         1     12      1
(PID.TID 0000.0001) EXF_SET_FLD:   first, changed, fac:   F   F   0.499663978E+00
(PID.TID 0000.0001) EXF_SET_FLD: processing field "lwdown",  file: EIG_dlw_plus_ECCO_v4r1_ctrl_2000
(PID.TID 0000.0001) EXF_SET_FLD:   myIter, count0, count1:         1     12      1
(PID.TID 0000.0001) EXF_SET_FLD:   first, changed, fac:   F   F   0.499663978E+00
(PID.TID 0000.0001) EXF_SET_FLD: processing field "runoff",  file: runoff-2d-Fekete-1deg-mon-V4-SMOOTH.bin
(PID.TID 0000.0001) EXF_SET_FLD:   myIter, count0, count1:         1     12      1
(PID.TID 0000.0001) EXF_SET_FLD:   first, changed, fac:   F   F   0.499663978E+00
(PID.TID 0000.0001) // =======================================================
(PID.TID 0000.0001) // Begin MONITOR EXF statistics
(PID.TID 0000.0001) // =======================================================
(PID.TID 0000.0001) %MON exf_tsnumber                 =                     1
(PID.TID 0000.0001) %MON exf_time_sec                 =   9.0000000000000E+02
(PID.TID 0000.0001) %MON exf_ustress_max              =   1.3196119875271E-01
(PID.TID 0000.0001) %MON exf_ustress_min              =  -1.1242532612141E-01
(PID.TID 0000.0001) %MON exf_ustress_mean             =  -4.4183650237821E-03
(PID.TID 0000.0001) %MON exf_ustress_sd               =   4.0088693643650E-02
(PID.TID 0000.0001) %MON exf_ustress_del2             =   1.4491160112435E-04
(PID.TID 0000.0001) %MON exf_vstress_max              =   9.9477248911774E-02
(PID.TID 0000.0001) %MON exf_vstress_min              =  -1.0047995426916E-01
(PID.TID 0000.0001) %MON exf_vstress_mean             =  -3.5072942453062E-03
(PID.TID 0000.0001) %MON exf_vstress_sd               =   1.8015526479886E-02
(PID.TID 0000.0001) %MON exf_vstress_del2             =   9.7291042366421E-05
(PID.TID 0000.0001) %MON exf_hflux_max                =   4.1332136522229E+02
(PID.TID 0000.0001) %MON exf_hflux_min                =  -3.3217138111520E+02
(PID.TID 0000.0001) %MON exf_hflux_mean               =  -8.1856283093647E+01
(PID.TID 0000.0001) %MON exf_hflux_sd                 =   1.0068396588909E+02
(PID.TID 0000.0001) %MON exf_hflux_del2               =   7.3312994929196E-01
(PID.TID 0000.0001) %MON exf_sflux_max                =   8.5103917079786E-08
(PID.TID 0000.0001) %MON exf_sflux_min                =  -6.3510783118475E-07
(PID.TID 0000.0001) %MON exf_sflux_mean               =  -1.5666353672064E-08
(PID.TID 0000.0001) %MON exf_sflux_sd                 =   3.7495711031127E-08
(PID.TID 0000.0001) %MON exf_sflux_del2               =   3.5165440948934E-10
(PID.TID 0000.0001) %MON exf_uwind_max                =   9.5221420379325E+00
(PID.TID 0000.0001) %MON exf_uwind_min                =  -8.7610262426294E+00
(PID.TID 0000.0001) %MON exf_uwind_mean               =  -4.9433697846342E-01
(PID.TID 0000.0001) %MON exf_uwind_sd                 =   4.4178643303446E+00
(PID.TID 0000.0001) %MON exf_uwind_del2               =   1.2108473152453E-02
(PID.TID 0000.0001) %MON exf_vwind_max                =   8.7165512925985E+00
(PID.TID 0000.0001) %MON exf_vwind_min                =  -6.9950967856611E+00
(PID.TID 0000.0001) %MON exf_vwind_mean               =  -3.7878625764585E-01
(PID.TID 0000.0001) %MON exf_vwind_sd                 =   2.2079401584422E+00
(PID.TID 0000.0001) %MON exf_vwind_del2               =   9.5077691300582E-03
(PID.TID 0000.0001) %MON exf_wspeed_max               =   9.5377432210038E+00
(PID.TID 0000.0001) %MON exf_wspeed_min               =   4.7484938982311E-02
(PID.TID 0000.0001) %MON exf_wspeed_mean              =   4.4776767020809E+00
(PID.TID 0000.0001) %MON exf_wspeed_sd                =   2.1750366464712E+00
(PID.TID 0000.0001) %MON exf_wspeed_del2              =   2.6390471190726E-02
(PID.TID 0000.0001) %MON exf_atemp_max                =   3.0188417195774E+02
(PID.TID 0000.0001) %MON exf_atemp_min                =   2.4477331975865E+02
(PID.TID 0000.0001) %MON exf_atemp_mean               =   2.9041290362890E+02
(PID.TID 0000.0001) %MON exf_atemp_sd                 =   9.7907742294219E+00
(PID.TID 0000.0001) %MON exf_atemp_del2               =   9.0505688564889E-02
(PID.TID 0000.0001) %MON exf_aqh_max                  =   1.9838468383108E-02
(PID.TID 0000.0001) %MON exf_aqh_min                  =   3.5629863771011E-04
(PID.TID 0000.0001) %MON exf_aqh_mean                 =   1.1235105120118E-02
(PID.TID 0000.0001) %MON exf_aqh_sd                   =   5.1803785972937E-03
(PID.TID 0000.0001) %MON exf_aqh_del2                 =   5.8601920244329E-05
(PID.TID 0000.0001) %MON exf_lwflux_max               =   1.5496845215624E+02
(PID.TID 0000.0001) %MON exf_lwflux_min               =   4.3026355371829E+00
(PID.TID 0000.0001) %MON exf_lwflux_mean              =   4.1309710540513E+01
(PID.TID 0000.0001) %MON exf_lwflux_sd                =   1.3587604736439E+01
(PID.TID 0000.0001) %MON exf_lwflux_del2              =   1.9930862142384E-01
(PID.TID 0000.0001) %MON exf_evap_max                 =   8.5132891741604E-08
(PID.TID 0000.0001) %MON exf_evap_min                 =  -1.2832510829439E-08
(PID.TID 0000.0001) %MON exf_evap_mean                =   2.6032113983559E-08
(PID.TID 0000.0001) %MON exf_evap_sd                  =   1.7974540660662E-08
(PID.TID 0000.0001) %MON exf_evap_del2                =   1.6639137681769E-10
(PID.TID 0000.0001) %MON exf_precip_max               =   1.4863271259625E-07
(PID.TID 0000.0001) %MON exf_precip_min               =  -8.5448440998468E-09
(PID.TID 0000.0001) %MON exf_precip_mean              =   3.9997069343239E-08
(PID.TID 0000.0001) %MON exf_precip_sd                =   2.9094014132077E-08
(PID.TID 0000.0001) %MON exf_precip_del2              =   3.1034184476083E-10
(PID.TID 0000.0001) %MON exf_swflux_max               =   3.3124034508282E+01
(PID.TID 0000.0001) %MON exf_swflux_min               =  -3.5303700717653E+02
(PID.TID 0000.0001) %MON exf_swflux_mean              =  -1.9692557306406E+02
(PID.TID 0000.0001) %MON exf_swflux_sd                =   7.3606517896627E+01
(PID.TID 0000.0001) %MON exf_swflux_del2              =   9.3067939996925E-01
(PID.TID 0000.0001) %MON exf_swdown_max               =   3.8080965467192E+02
(PID.TID 0000.0001) %MON exf_swdown_min               =  -4.7320049297545E+01
(PID.TID 0000.0001) %MON exf_swdown_mean              =   2.1343087754549E+02
(PID.TID 0000.0001) %MON exf_swdown_sd                =   7.8894496861616E+01
(PID.TID 0000.0001) %MON exf_swdown_del2              =   1.0071702401242E+00
(PID.TID 0000.0001) %MON exf_lwdown_max               =   4.4360662763921E+02
(PID.TID 0000.0001) %MON exf_lwdown_min               =   1.5698751102173E+02
(PID.TID 0000.0001) %MON exf_lwdown_mean              =   3.6918899201488E+02
(PID.TID 0000.0001) %MON exf_lwdown_sd                =   5.1750740702495E+01
(PID.TID 0000.0001) %MON exf_lwdown_del2              =   1.5869248827838E+00
(PID.TID 0000.0001) %MON exf_runoff_max               =   5.5091491220202E-07
(PID.TID 0000.0001) %MON exf_runoff_min               =   0.0000000000000E+00
(PID.TID 0000.0001) %MON exf_runoff_mean              =   1.7013983123851E-09
(PID.TID 0000.0001) %MON exf_runoff_sd                =   1.1340821728537E-08
(PID.TID 0000.0001) %MON exf_runoff_del2              =   1.2650195299671E-10
(PID.TID 0000.0001) %MON exf_apco2_max                =   3.7074027557266E-04
(PID.TID 0000.0001) %MON exf_apco2_min                =   3.6819594783222E-04
(PID.TID 0000.0001) %MON exf_apco2_mean               =   3.6882178432298E-04
(PID.TID 0000.0001) %MON exf_apco2_sd                 =   5.2252448442491E-07
(PID.TID 0000.0001) %MON exf_apco2_del2               =   1.5223087337942E-06
(PID.TID 0000.0001) // =======================================================
(PID.TID 0000.0001) // End MONITOR EXF statistics
(PID.TID 0000.0001) // =======================================================
 EXTERNAL_FIELDS_LOAD,         1 : iP,iLd,i0,i1=   12    1   12    1 ; Wght=  0.4996527778  0.5003472222
 EXTERNAL_FIELDS_LOAD: (fu0,1),fu,fv=  0.0000E+00  0.0000E+00 -8.5165E-04  2.4537E-02
 EXTERNAL_FIELDS_LOAD: SST,SSS,Q,E-P=  0.0000E+00  0.0000E+00 -1.4151E+02 -4.1138E-05
DEBUG_STATS_RL:          Uvel (THERMODYNAMICS)  min= -2.37529354604392E-01
DEBUG_STATS_RL:          Uvel (THERMODYNAMICS)  max=  1.90141739317133E-01
DEBUG_STATS_RL:          Uvel (THERMODYNAMICS) mean=  4.32974687350610E-03
DEBUG_STATS_RL:          Uvel (THERMODYNAMICS) S.D.=  2.22465626934295E-02
DEBUG_STATS_RL:          Vvel (THERMODYNAMICS)  min= -2.16915177467823E-01
DEBUG_STATS_RL:          Vvel (THERMODYNAMICS)  max=  1.47032403086852E-01
DEBUG_STATS_RL:          Vvel (THERMODYNAMICS) mean= -2.61599920868152E-04
DEBUG_STATS_RL:          Vvel (THERMODYNAMICS) S.D.=  1.29444675605005E-02
DEBUG_STATS_RL:          Wvel (THERMODYNAMICS)  min= -7.73289884358239E-05
DEBUG_STATS_RL:          Wvel (THERMODYNAMICS)  max=  5.14273159700798E-05
DEBUG_STATS_RL:          Wvel (THERMODYNAMICS) mean=  1.09069933302274E-07
DEBUG_STATS_RL:          Wvel (THERMODYNAMICS) S.D.=  4.79739431783307E-06
DEBUG_STATS_RL:         Theta (THERMODYNAMICS)  min= -3.46748056779152E+00
DEBUG_STATS_RL:         Theta (THERMODYNAMICS)  max=  3.02459760967899E+01
DEBUG_STATS_RL:         Theta (THERMODYNAMICS) mean=  6.18028327354469E+00
DEBUG_STATS_RL:         Theta (THERMODYNAMICS) S.D.=  6.76150146742396E+00
DEBUG_STATS_RL:          Salt (THERMODYNAMICS)  min=  3.14845900453524E+01
DEBUG_STATS_RL:          Salt (THERMODYNAMICS)  max=  3.75568210357124E+01
DEBUG_STATS_RL:          Salt (THERMODYNAMICS) mean=  3.46619902619048E+01
DEBUG_STATS_RL:          Salt (THERMODYNAMICS) S.D.=  4.90704346576841E-01
DEBUG_STATS_RL:                   PTRACER.0001  min= -2.83536750809619E-01
DEBUG_STATS_RL:                   PTRACER.0001  max=  3.52291550878958E+00
DEBUG_STATS_RL:                   PTRACER.0001 mean=  1.96074795165949E+00
DEBUG_STATS_RL:                   PTRACER.0001 S.D.=  7.55752988799902E-01
DEBUG_STATS_RL:                   GNm1TRC.0001  min=  0.00000000000000E+00
DEBUG_STATS_RL:                   GNm1TRC.0001  max=  0.00000000000000E+00
DEBUG_STATS_RL:                   GNm1TRC.0001 mean=  0.00000000000000E+00
DEBUG_STATS_RL:                   GNm1TRC.0001 S.D.=  0.00000000000000E+00
DEBUG_STATS_RL:                   PTRACER.0002  min= -4.57864281183065E+00
DEBUG_STATS_RL:                   PTRACER.0002  max=  4.87232117252165E+01
DEBUG_STATS_RL:                   PTRACER.0002 mean=  2.77654614168709E+01
DEBUG_STATS_RL:                   PTRACER.0002 S.D.=  1.09482879887076E+01
DEBUG_STATS_RL:                   GNm1TRC.0002  min=  0.00000000000000E+00
DEBUG_STATS_RL:                   GNm1TRC.0002  max=  0.00000000000000E+00
DEBUG_STATS_RL:                   GNm1TRC.0002 mean=  0.00000000000000E+00
DEBUG_STATS_RL:                   GNm1TRC.0002 S.D.=  0.00000000000000E+00
DEBUG_STATS_RL:                   PTRACER.0003  min= -1.33844510905929E-04
DEBUG_STATS_RL:                   PTRACER.0003  max=  1.05973151232237E-03
DEBUG_STATS_RL:                   PTRACER.0003 mean=  5.88661356523762E-04
DEBUG_STATS_RL:                   PTRACER.0003 S.D.=  1.74806151944667E-04
DEBUG_STATS_RL:                   GNm1TRC.0003  min=  0.00000000000000E+00
DEBUG_STATS_RL:                   GNm1TRC.0003  max=  0.00000000000000E+00
DEBUG_STATS_RL:                   GNm1TRC.0003 mean=  0.00000000000000E+00
DEBUG_STATS_RL:                   GNm1TRC.0003 S.D.=  0.00000000000000E+00
DEBUG_STATS_RL:                   PTRACER.0004  min= -2.54013064463499E+01
DEBUG_STATS_RL:                   PTRACER.0004  max=  1.98925200836199E+02
DEBUG_STATS_RL:                   PTRACER.0004 mean=  6.95778170458115E+01
DEBUG_STATS_RL:                   PTRACER.0004 S.D.=  5.06354634733091E+01
DEBUG_STATS_RL:                   GNm1TRC.0004  min=  0.00000000000000E+00
DEBUG_STATS_RL:                   GNm1TRC.0004  max=  0.00000000000000E+00
DEBUG_STATS_RL:                   GNm1TRC.0004 mean=  0.00000000000000E+00
DEBUG_STATS_RL:                   GNm1TRC.0004 S.D.=  0.00000000000000E+00
DEBUG_STATS_RL:                   PTRACER.0005  min= -1.82311090979707E-02
DEBUG_STATS_RL:                   PTRACER.0005  max=  5.66509659206301E-01
DEBUG_STATS_RL:                   PTRACER.0005 mean=  1.19450859895152E-02
DEBUG_STATS_RL:                   PTRACER.0005 S.D.=  4.22299232770288E-02
DEBUG_STATS_RL:                   GNm1TRC.0005  min=  0.00000000000000E+00
DEBUG_STATS_RL:                   GNm1TRC.0005  max=  0.00000000000000E+00
DEBUG_STATS_RL:                   GNm1TRC.0005 mean=  0.00000000000000E+00
DEBUG_STATS_RL:                   GNm1TRC.0005 S.D.=  0.00000000000000E+00
DEBUG_STATS_RL:                   PTRACER.0006  min= -2.91697745567530E-01
DEBUG_STATS_RL:                   PTRACER.0006  max=  9.06415454730082E+00
DEBUG_STATS_RL:                   PTRACER.0006 mean=  1.91121375832241E-01
DEBUG_STATS_RL:                   PTRACER.0006 S.D.=  6.75678772432462E-01
DEBUG_STATS_RL:                   GNm1TRC.0006  min=  0.00000000000000E+00
DEBUG_STATS_RL:                   GNm1TRC.0006  max=  0.00000000000000E+00
DEBUG_STATS_RL:                   GNm1TRC.0006 mean=  0.00000000000000E+00
DEBUG_STATS_RL:                   GNm1TRC.0006 S.D.=  0.00000000000000E+00
DEBUG_STATS_RL:                   PTRACER.0007  min= -1.82311098827640E-05
DEBUG_STATS_RL:                   PTRACER.0007  max=  5.66509652223280E-04
DEBUG_STATS_RL:                   PTRACER.0007 mean=  1.19450859796951E-05
DEBUG_STATS_RL:                   PTRACER.0007 S.D.=  4.22299232026156E-05
DEBUG_STATS_RL:                   GNm1TRC.0007  min=  0.00000000000000E+00
DEBUG_STATS_RL:                   GNm1TRC.0007  max=  0.00000000000000E+00
DEBUG_STATS_RL:                   GNm1TRC.0007 mean=  0.00000000000000E+00
DEBUG_STATS_RL:                   GNm1TRC.0007 S.D.=  0.00000000000000E+00
DEBUG_STATS_RL:                   PTRACER.0008  min= -4.08246707485205E-03
DEBUG_STATS_RL:                   PTRACER.0008  max=  5.50200224026320E-02
DEBUG_STATS_RL:                   PTRACER.0008 mean=  1.93657663947489E-04
DEBUG_STATS_RL:                   PTRACER.0008 S.D.=  1.75257598794857E-03
DEBUG_STATS_RL:                   GNm1TRC.0008  min=  0.00000000000000E+00
DEBUG_STATS_RL:                   GNm1TRC.0008  max=  0.00000000000000E+00
DEBUG_STATS_RL:                   GNm1TRC.0008 mean=  0.00000000000000E+00
DEBUG_STATS_RL:                   GNm1TRC.0008 S.D.=  0.00000000000000E+00
DEBUG_STATS_RL:                   PTRACER.0009  min= -6.53194731976329E-02
DEBUG_STATS_RL:                   PTRACER.0009  max=  8.80320358442113E-01
DEBUG_STATS_RL:                   PTRACER.0009 mean=  3.09852262316986E-03
DEBUG_STATS_RL:                   PTRACER.0009 S.D.=  2.80412158071796E-02
DEBUG_STATS_RL:                   GNm1TRC.0009  min=  0.00000000000000E+00
DEBUG_STATS_RL:                   GNm1TRC.0009  max=  0.00000000000000E+00
DEBUG_STATS_RL:                   GNm1TRC.0009 mean=  0.00000000000000E+00
DEBUG_STATS_RL:                   GNm1TRC.0009 S.D.=  0.00000000000000E+00
DEBUG_STATS_RL:                   PTRACER.0010  min= -4.08246712214304E-06
DEBUG_STATS_RL:                   PTRACER.0010  max=  5.50200226062471E-05
DEBUG_STATS_RL:                   PTRACER.0010 mean=  1.93657664275676E-07
DEBUG_STATS_RL:                   PTRACER.0010 S.D.=  1.75257599573995E-06
DEBUG_STATS_RL:                   GNm1TRC.0010  min=  0.00000000000000E+00
DEBUG_STATS_RL:                   GNm1TRC.0010  max=  0.00000000000000E+00
DEBUG_STATS_RL:                   GNm1TRC.0010 mean=  0.00000000000000E+00
DEBUG_STATS_RL:                   GNm1TRC.0010 S.D.=  0.00000000000000E+00
DEBUG_STATS_RL:                   PTRACER.0011  min= -1.20393939026338E-03
DEBUG_STATS_RL:                   PTRACER.0011  max=  1.91187599888156E-02
DEBUG_STATS_RL:                   PTRACER.0011 mean=  3.38010559105466E-05
DEBUG_STATS_RL:                   PTRACER.0011 S.D.=  4.26371474050256E-04
DEBUG_STATS_RL:                   GNm1TRC.0011  min=  0.00000000000000E+00
DEBUG_STATS_RL:                   GNm1TRC.0011  max=  0.00000000000000E+00
DEBUG_STATS_RL:                   GNm1TRC.0011 mean=  0.00000000000000E+00
DEBUG_STATS_RL:                   GNm1TRC.0011 S.D.=  0.00000000000000E+00
DEBUG_STATS_RL:                   PTRACER.0012  min= -1.26181180149158E-02
DEBUG_STATS_RL:                   PTRACER.0012  max=  1.45974366952324E-01
DEBUG_STATS_RL:                   PTRACER.0012 mean=  3.90280486369697E-04
DEBUG_STATS_RL:                   PTRACER.0012 S.D.=  3.98663464973205E-03
DEBUG_STATS_RL:                   GNm1TRC.0012  min=  0.00000000000000E+00
DEBUG_STATS_RL:                   GNm1TRC.0012  max=  0.00000000000000E+00
DEBUG_STATS_RL:                   GNm1TRC.0012 mean=  0.00000000000000E+00
DEBUG_STATS_RL:                   GNm1TRC.0012 S.D.=  0.00000000000000E+00
DEBUG_STATS_RL:                   PTRACER.0013  min= -2.01889888238654E-01
DEBUG_STATS_RL:                   PTRACER.0013  max=  2.33558987123719E+00
DEBUG_STATS_RL:                   PTRACER.0013 mean=  6.24448778194610E-03
DEBUG_STATS_RL:                   PTRACER.0013 S.D.=  6.37861543957122E-02
DEBUG_STATS_RL:                   GNm1TRC.0013  min=  0.00000000000000E+00
DEBUG_STATS_RL:                   GNm1TRC.0013  max=  0.00000000000000E+00
DEBUG_STATS_RL:                   GNm1TRC.0013 mean=  0.00000000000000E+00
DEBUG_STATS_RL:                   GNm1TRC.0013 S.D.=  0.00000000000000E+00
DEBUG_STATS_RL:                   PTRACER.0014  min= -1.26181176948913E-05
DEBUG_STATS_RL:                   PTRACER.0014  max=  1.45974375794705E-04
DEBUG_STATS_RL:                   PTRACER.0014 mean=  3.90280487749730E-07
DEBUG_STATS_RL:                   PTRACER.0014 S.D.=  3.98663468891961E-06
DEBUG_STATS_RL:                   GNm1TRC.0014  min=  0.00000000000000E+00
DEBUG_STATS_RL:                   GNm1TRC.0014  max=  0.00000000000000E+00
DEBUG_STATS_RL:                   GNm1TRC.0014 mean=  0.00000000000000E+00
DEBUG_STATS_RL:                   GNm1TRC.0014 S.D.=  0.00000000000000E+00
DEBUG_STATS_RL:                   PTRACER.0015  min= -3.72465281731168E-02
DEBUG_STATS_RL:                   PTRACER.0015  max=  9.22910236549343E-01
DEBUG_STATS_RL:                   PTRACER.0015 mean=  2.32903213591194E-03
DEBUG_STATS_RL:                   PTRACER.0015 S.D.=  2.30322728876530E-02
DEBUG_STATS_RL:                   GNm1TRC.0015  min=  0.00000000000000E+00
DEBUG_STATS_RL:                   GNm1TRC.0015  max=  0.00000000000000E+00
DEBUG_STATS_RL:                   GNm1TRC.0015 mean=  0.00000000000000E+00
DEBUG_STATS_RL:                   GNm1TRC.0015 S.D.=  0.00000000000000E+00
DEBUG_STATS_RL:                   PTRACER.0016  min= -4.93343266837780E-03
DEBUG_STATS_RL:                   PTRACER.0016  max=  1.35875001459073E-01
DEBUG_STATS_RL:                   PTRACER.0016 mean=  1.30178285933603E-03
DEBUG_STATS_RL:                   PTRACER.0016 S.D.=  3.01612337352309E-03
DEBUG_STATS_RL:                   GNm1TRC.0016  min=  0.00000000000000E+00
DEBUG_STATS_RL:                   GNm1TRC.0016  max=  0.00000000000000E+00
DEBUG_STATS_RL:                   GNm1TRC.0016 mean=  0.00000000000000E+00
DEBUG_STATS_RL:                   GNm1TRC.0016 S.D.=  0.00000000000000E+00
DEBUG_STATS_RL:                   PTRACER.0017  min= -7.89349133564462E-02
DEBUG_STATS_RL:                   PTRACER.0017  max=  2.17416165116535E+00
DEBUG_STATS_RL:                   PTRACER.0017 mean=  2.08442989471038E-02
DEBUG_STATS_RL:                   PTRACER.0017 S.D.=  4.82893581365283E-02
DEBUG_STATS_RL:                   GNm1TRC.0017  min=  0.00000000000000E+00
DEBUG_STATS_RL:                   GNm1TRC.0017  max=  0.00000000000000E+00
DEBUG_STATS_RL:                   GNm1TRC.0017 mean=  0.00000000000000E+00
DEBUG_STATS_RL:                   GNm1TRC.0017 S.D.=  0.00000000000000E+00
DEBUG_STATS_RL:                   PTRACER.0018  min= -4.93343199386744E-06
DEBUG_STATS_RL:                   PTRACER.0018  max=  1.35885098399105E-04
DEBUG_STATS_RL:                   PTRACER.0018 mean=  1.30276868340178E-06
DEBUG_STATS_RL:                   PTRACER.0018 S.D.=  3.01808486339568E-06
DEBUG_STATS_RL:                   GNm1TRC.0018  min=  0.00000000000000E+00
DEBUG_STATS_RL:                   GNm1TRC.0018  max=  0.00000000000000E+00
DEBUG_STATS_RL:                   GNm1TRC.0018 mean=  0.00000000000000E+00
DEBUG_STATS_RL:                   GNm1TRC.0018 S.D.=  0.00000000000000E+00
DEBUG_STATS_RL:                   PTRACER.0019  min= -2.89958935987017E-01
DEBUG_STATS_RL:                   PTRACER.0019  max=  1.96070625055779E+01
DEBUG_STATS_RL:                   PTRACER.0019 mean=  1.24680414728972E-01
DEBUG_STATS_RL:                   PTRACER.0019 S.D.=  3.18759166264042E-01
DEBUG_STATS_RL:                   GNm1TRC.0019  min=  0.00000000000000E+00
DEBUG_STATS_RL:                   GNm1TRC.0019  max=  0.00000000000000E+00
DEBUG_STATS_RL:                   GNm1TRC.0019 mean=  0.00000000000000E+00
DEBUG_STATS_RL:                   GNm1TRC.0019 S.D.=  0.00000000000000E+00
DEBUG_STATS_RL:                   PTRACER.0020  min= -2.87652166419528E-02
DEBUG_STATS_RL:                   PTRACER.0020  max=  3.26826685065230E-01
DEBUG_STATS_RL:                   PTRACER.0020 mean=  3.00231590981729E-03
DEBUG_STATS_RL:                   PTRACER.0020 S.D.=  1.51473911907141E-02
DEBUG_STATS_RL:                   GNm1TRC.0020  min=  0.00000000000000E+00
DEBUG_STATS_RL:                   GNm1TRC.0020  max=  0.00000000000000E+00
DEBUG_STATS_RL:                   GNm1TRC.0020 mean=  0.00000000000000E+00
DEBUG_STATS_RL:                   GNm1TRC.0020 S.D.=  0.00000000000000E+00
DEBUG_STATS_RL:                   PTRACER.0021  min= -1.24838635119853E-01
DEBUG_STATS_RL:                   PTRACER.0021  max=  8.53129870663976E-01
DEBUG_STATS_RL:                   PTRACER.0021 mean=  1.47839061144750E-02
DEBUG_STATS_RL:                   PTRACER.0021 S.D.=  5.65288115385128E-02
DEBUG_STATS_RL:                   GNm1TRC.0021  min=  0.00000000000000E+00
DEBUG_STATS_RL:                   GNm1TRC.0021  max=  0.00000000000000E+00
DEBUG_STATS_RL:                   GNm1TRC.0021 mean=  0.00000000000000E+00
DEBUG_STATS_RL:                   GNm1TRC.0021 S.D.=  0.00000000000000E+00
DEBUG_STATS_RL:                   PTRACER.0022  min= -5.07592540594773E-02
DEBUG_STATS_RL:                   PTRACER.0022  max=  1.73614613859210E-01
DEBUG_STATS_RL:                   PTRACER.0022 mean=  5.25810380587054E-04
DEBUG_STATS_RL:                   PTRACER.0022 S.D.=  5.67153967993920E-03
DEBUG_STATS_RL:                   GNm1TRC.0022  min=  0.00000000000000E+00
DEBUG_STATS_RL:                   GNm1TRC.0022  max=  0.00000000000000E+00
DEBUG_STATS_RL:                   GNm1TRC.0022 mean=  0.00000000000000E+00
DEBUG_STATS_RL:                   GNm1TRC.0022 S.D.=  0.00000000000000E+00
DEBUG_STATS_RL:                   PTRACER.0023  min= -2.98167229512238E-02
DEBUG_STATS_RL:                   PTRACER.0023  max=  1.03187582254882E-01
DEBUG_STATS_RL:                   PTRACER.0023 mean=  2.23744801502385E-04
DEBUG_STATS_RL:                   PTRACER.0023 S.D.=  2.25673715454925E-03
DEBUG_STATS_RL:                   GNm1TRC.0023  min=  0.00000000000000E+00
DEBUG_STATS_RL:                   GNm1TRC.0023  max=  0.00000000000000E+00
DEBUG_STATS_RL:                   GNm1TRC.0023 mean=  0.00000000000000E+00
DEBUG_STATS_RL:                   GNm1TRC.0023 S.D.=  0.00000000000000E+00
DEBUG_STATS_RL:                   PTRACER.0024  min= -2.45833579172956E-02
DEBUG_STATS_RL:                   PTRACER.0024  max=  1.41564362221425E-01
DEBUG_STATS_RL:                   PTRACER.0024 mean=  1.75113694585953E-04
DEBUG_STATS_RL:                   PTRACER.0024 S.D.=  1.77052063344423E-03
DEBUG_STATS_RL:                   GNm1TRC.0024  min=  0.00000000000000E+00
DEBUG_STATS_RL:                   GNm1TRC.0024  max=  0.00000000000000E+00
DEBUG_STATS_RL:                   GNm1TRC.0024 mean=  0.00000000000000E+00
DEBUG_STATS_RL:                   GNm1TRC.0024 S.D.=  0.00000000000000E+00
DEBUG_STATS_RL:                   PTRACER.0025  min= -7.38035002531548E-04
DEBUG_STATS_RL:                   PTRACER.0025  max=  2.20797618688374E-03
DEBUG_STATS_RL:                   PTRACER.0025 mean=  6.06192629905939E-07
DEBUG_STATS_RL:                   PTRACER.0025 S.D.=  3.25236516135763E-05
DEBUG_STATS_RL:                   GNm1TRC.0025  min=  0.00000000000000E+00
DEBUG_STATS_RL:                   GNm1TRC.0025  max=  0.00000000000000E+00
DEBUG_STATS_RL:                   GNm1TRC.0025 mean=  0.00000000000000E+00
DEBUG_STATS_RL:                   GNm1TRC.0025 S.D.=  0.00000000000000E+00
DEBUG_STATS_RL:                   PTRACER.0026  min= -2.02978934861093E-03
DEBUG_STATS_RL:                   PTRACER.0026  max=  2.64879467172649E-02
DEBUG_STATS_RL:                   PTRACER.0026 mean=  3.49143956375359E-04
DEBUG_STATS_RL:                   PTRACER.0026 S.D.=  1.69158300200408E-03
DEBUG_STATS_RL:                   GNm1TRC.0026  min=  0.00000000000000E+00
DEBUG_STATS_RL:                   GNm1TRC.0026  max=  0.00000000000000E+00
DEBUG_STATS_RL:                   GNm1TRC.0026 mean=  0.00000000000000E+00
DEBUG_STATS_RL:                   GNm1TRC.0026 S.D.=  0.00000000000000E+00
DEBUG_STATS_RL:                   PTRACER.0027  min= -3.04564633126480E+00
DEBUG_STATS_RL:                   PTRACER.0027  max=  6.33400349570919E+00
DEBUG_STATS_RL:                   PTRACER.0027 mean=  1.05039469412040E-02
DEBUG_STATS_RL:                   PTRACER.0027 S.D.=  1.47756013128621E-01
DEBUG_STATS_RL:                   GNm1TRC.0027  min=  0.00000000000000E+00
DEBUG_STATS_RL:                   GNm1TRC.0027  max=  0.00000000000000E+00
DEBUG_STATS_RL:                   GNm1TRC.0027 mean=  0.00000000000000E+00
DEBUG_STATS_RL:                   GNm1TRC.0027 S.D.=  0.00000000000000E+00
DEBUG_STATS_RL:                   PTRACER.0028  min= -1.78901342342103E+00
DEBUG_STATS_RL:                   PTRACER.0028  max=  3.38444549443904E+00
DEBUG_STATS_RL:                   PTRACER.0028 mean=  4.47073697715793E-03
DEBUG_STATS_RL:                   PTRACER.0028 S.D.=  5.99198275204401E-02
DEBUG_STATS_RL:                   GNm1TRC.0028  min=  0.00000000000000E+00
DEBUG_STATS_RL:                   GNm1TRC.0028  max=  0.00000000000000E+00
DEBUG_STATS_RL:                   GNm1TRC.0028 mean=  0.00000000000000E+00
DEBUG_STATS_RL:                   GNm1TRC.0028 S.D.=  0.00000000000000E+00
DEBUG_STATS_RL:                   PTRACER.0029  min= -5.90000590143336E-01
DEBUG_STATS_RL:                   PTRACER.0029  max=  8.99820227153666E-01
DEBUG_STATS_RL:                   PTRACER.0029 mean=  9.59050742836375E-04
DEBUG_STATS_RL:                   PTRACER.0029 S.D.=  1.25574688900939E-02
DEBUG_STATS_RL:                   GNm1TRC.0029  min=  0.00000000000000E+00
DEBUG_STATS_RL:                   GNm1TRC.0029  max=  0.00000000000000E+00
DEBUG_STATS_RL:                   GNm1TRC.0029 mean=  0.00000000000000E+00
DEBUG_STATS_RL:                   GNm1TRC.0029 S.D.=  0.00000000000000E+00
DEBUG_STATS_RL:                   PTRACER.0030  min= -1.77210766858468E-02
DEBUG_STATS_RL:                   PTRACER.0030  max=  7.10038832800553E-03
DEBUG_STATS_RL:                   PTRACER.0030 mean= -1.41461219142713E-06
DEBUG_STATS_RL:                   PTRACER.0030 S.D.=  2.04219989559166E-04
DEBUG_STATS_RL:                   GNm1TRC.0030  min=  0.00000000000000E+00
DEBUG_STATS_RL:                   GNm1TRC.0030  max=  0.00000000000000E+00
DEBUG_STATS_RL:                   GNm1TRC.0030 mean=  0.00000000000000E+00
DEBUG_STATS_RL:                   GNm1TRC.0030 S.D.=  0.00000000000000E+00
DEBUG_STATS_RL:                   PTRACER.0031  min= -4.87120275985957E-02
DEBUG_STATS_RL:                   PTRACER.0031  max=  3.84726290608991E-01
DEBUG_STATS_RL:                   PTRACER.0031 mean=  3.40737478884070E-03
DEBUG_STATS_RL:                   PTRACER.0031 S.D.=  1.85377388010577E-02
DEBUG_STATS_RL:                   GNm1TRC.0031  min=  0.00000000000000E+00
DEBUG_STATS_RL:                   GNm1TRC.0031  max=  0.00000000000000E+00
DEBUG_STATS_RL:                   GNm1TRC.0031 mean=  0.00000000000000E+00
DEBUG_STATS_RL:                   GNm1TRC.0031 S.D.=  0.00000000000000E+00
DEBUG_STATS_RL:                   PTRACER.0032  min=  1.57248019000870E+03
DEBUG_STATS_RL:                   PTRACER.0032  max=  2.50728903078102E+03
DEBUG_STATS_RL:                   PTRACER.0032 mean=  2.29724549134618E+03
DEBUG_STATS_RL:                   PTRACER.0032 S.D.=  9.84192709916936E+01
DEBUG_STATS_RL:                   GNm1TRC.0032  min=  0.00000000000000E+00
DEBUG_STATS_RL:                   GNm1TRC.0032  max=  0.00000000000000E+00
DEBUG_STATS_RL:                   GNm1TRC.0032 mean=  0.00000000000000E+00
DEBUG_STATS_RL:                   GNm1TRC.0032 S.D.=  0.00000000000000E+00
DEBUG_STATS_RL:                   PTRACER.0033  min= -4.48262850678319E+00
DEBUG_STATS_RL:                   PTRACER.0033  max=  1.00728159893786E+02
DEBUG_STATS_RL:                   PTRACER.0033 mean=  2.68345697094805E+00
DEBUG_STATS_RL:                   PTRACER.0033 S.D.=  8.24367350119235E+00
DEBUG_STATS_RL:                   GNm1TRC.0033  min=  0.00000000000000E+00
DEBUG_STATS_RL:                   GNm1TRC.0033  max=  0.00000000000000E+00
DEBUG_STATS_RL:                   GNm1TRC.0033 mean=  0.00000000000000E+00
DEBUG_STATS_RL:                   GNm1TRC.0033 S.D.=  0.00000000000000E+00
DEBUG_STATS_RL:                   PTRACER.0034  min= -6.20640309487216E-01
DEBUG_STATS_RL:                   PTRACER.0034  max=  2.62548367051732E+01
DEBUG_STATS_RL:                   PTRACER.0034 mean=  2.62501676667425E-01
DEBUG_STATS_RL:                   PTRACER.0034 S.D.=  5.20488213059276E-01
DEBUG_STATS_RL:                   GNm1TRC.0034  min=  0.00000000000000E+00
DEBUG_STATS_RL:                   GNm1TRC.0034  max=  0.00000000000000E+00
DEBUG_STATS_RL:                   GNm1TRC.0034 mean=  0.00000000000000E+00
DEBUG_STATS_RL:                   GNm1TRC.0034 S.D.=  0.00000000000000E+00
DEBUG_STATS_RL:                   PTRACER.0035  min= -3.16023383479339E-02
DEBUG_STATS_RL:                   PTRACER.0035  max=  3.81146584463714E+00
DEBUG_STATS_RL:                   PTRACER.0035 mean=  2.48088693195420E-02
DEBUG_STATS_RL:                   PTRACER.0035 S.D.=  6.35681023484939E-02
DEBUG_STATS_RL:                   GNm1TRC.0035  min=  0.00000000000000E+00
DEBUG_STATS_RL:                   GNm1TRC.0035  max=  0.00000000000000E+00
DEBUG_STATS_RL:                   GNm1TRC.0035 mean=  0.00000000000000E+00
DEBUG_STATS_RL:                   GNm1TRC.0035 S.D.=  0.00000000000000E+00
DEBUG_STATS_RL:                   PTRACER.0036  min=  1.64143649441355E+03
DEBUG_STATS_RL:                   PTRACER.0036  max=  2.72042332250887E+03
DEBUG_STATS_RL:                   PTRACER.0036 mean=  2.42788124783163E+03
DEBUG_STATS_RL:                   PTRACER.0036 S.D.=  6.40298717365515E+01
DEBUG_STATS_RL:                   GNm1TRC.0036  min=  0.00000000000000E+00
DEBUG_STATS_RL:                   GNm1TRC.0036  max=  0.00000000000000E+00
DEBUG_STATS_RL:                   GNm1TRC.0036 mean=  0.00000000000000E+00
DEBUG_STATS_RL:                   GNm1TRC.0036 S.D.=  0.00000000000000E+00
DEBUG_STATS_RL:                   PTRACER.0037  min= -5.33741594626054E+01
DEBUG_STATS_RL:                   PTRACER.0037  max=  4.64746063765381E+02
DEBUG_STATS_RL:                   PTRACER.0037 mean=  1.94225665764500E+02
DEBUG_STATS_RL:                   PTRACER.0037 S.D.=  6.54322867482819E+01
DEBUG_STATS_RL:                   GNm1TRC.0037  min=  0.00000000000000E+00
DEBUG_STATS_RL:                   GNm1TRC.0037  max=  0.00000000000000E+00
DEBUG_STATS_RL:                   GNm1TRC.0037 mean=  0.00000000000000E+00
DEBUG_STATS_RL:                   GNm1TRC.0037 S.D.=  0.00000000000000E+00
DEBUG_STATS_RL:                   PTRACER.0038  min= -4.89896041532067E-01
DEBUG_STATS_RL:                   PTRACER.0038  max=  6.60240265854477E+00
DEBUG_STATS_RL:                   PTRACER.0038 mean=  2.32389197590327E-02
DEBUG_STATS_RL:                   PTRACER.0038 S.D.=  2.10309120098143E-01
DEBUG_STATS_RL:                   GNm1TRC.0038  min=  0.00000000000000E+00
DEBUG_STATS_RL:                   GNm1TRC.0038  max=  0.00000000000000E+00
DEBUG_STATS_RL:                   GNm1TRC.0038 mean=  0.00000000000000E+00
DEBUG_STATS_RL:                   GNm1TRC.0038 S.D.=  0.00000000000000E+00
DEBUG_STATS_RL:                   PTRACER.0039  min= -1.51417409475528E+00
DEBUG_STATS_RL:                   PTRACER.0039  max=  1.75169243916412E+01
DEBUG_STATS_RL:                   PTRACER.0039 mean=  4.68336584218760E-02
DEBUG_STATS_RL:                   PTRACER.0039 S.D.=  4.78396159431108E-01
DEBUG_STATS_RL:                   GNm1TRC.0039  min=  0.00000000000000E+00
DEBUG_STATS_RL:                   GNm1TRC.0039  max=  0.00000000000000E+00
DEBUG_STATS_RL:                   GNm1TRC.0039 mean=  0.00000000000000E+00
DEBUG_STATS_RL:                   GNm1TRC.0039 S.D.=  0.00000000000000E+00
DEBUG_STATS_RL:                   PTRACER.0040  min=  0.00000000000000E+00
DEBUG_STATS_RL:                   PTRACER.0040  max=  0.00000000000000E+00
DEBUG_STATS_RL:                   PTRACER.0040 mean=  0.00000000000000E+00
DEBUG_STATS_RL:                   PTRACER.0040 S.D.=  0.00000000000000E+00
DEBUG_STATS_RL:                   GNm1TRC.0040  min=  0.00000000000000E+00
DEBUG_STATS_RL:                   GNm1TRC.0040  max=  0.00000000000000E+00
DEBUG_STATS_RL:                   GNm1TRC.0040 mean=  0.00000000000000E+00
DEBUG_STATS_RL:                   GNm1TRC.0040 S.D.=  0.00000000000000E+00
DEBUG_STATS_RL:                EtaN (DYNAMICS)  min= -1.46116947544935E+00
DEBUG_STATS_RL:                EtaN (DYNAMICS)  max=  9.59121742456740E-01
DEBUG_STATS_RL:                EtaN (DYNAMICS) mean= -1.58525895809239E-01
DEBUG_STATS_RL:                EtaN (DYNAMICS) S.D.=  6.38402510001194E-01
DEBUG_STATS_RL:                Uvel (DYNAMICS)  min= -2.37529354604392E-01
DEBUG_STATS_RL:                Uvel (DYNAMICS)  max=  1.90141739317133E-01
DEBUG_STATS_RL:                Uvel (DYNAMICS) mean=  4.32974687350610E-03
DEBUG_STATS_RL:                Uvel (DYNAMICS) S.D.=  2.22465626934295E-02
DEBUG_STATS_RL:                Vvel (DYNAMICS)  min= -2.16915177467823E-01
DEBUG_STATS_RL:                Vvel (DYNAMICS)  max=  1.47032403086852E-01
DEBUG_STATS_RL:                Vvel (DYNAMICS) mean= -2.61599920868152E-04
DEBUG_STATS_RL:                Vvel (DYNAMICS) S.D.=  1.29444675605005E-02
DEBUG_STATS_RL:                Wvel (DYNAMICS)  min= -7.73289884358239E-05
DEBUG_STATS_RL:                Wvel (DYNAMICS)  max=  5.14273159700798E-05
DEBUG_STATS_RL:                Wvel (DYNAMICS) mean=  1.09069933302274E-07
DEBUG_STATS_RL:                Wvel (DYNAMICS) S.D.=  4.79739431783307E-06
DEBUG_STATS_RL:               Theta (DYNAMICS)  min= -3.46748056779152E+00
DEBUG_STATS_RL:               Theta (DYNAMICS)  max=  3.02459760967899E+01
DEBUG_STATS_RL:               Theta (DYNAMICS) mean=  6.18028327354469E+00
DEBUG_STATS_RL:               Theta (DYNAMICS) S.D.=  6.76150146742396E+00
DEBUG_STATS_RL:                Salt (DYNAMICS)  min=  3.14845900453524E+01
DEBUG_STATS_RL:                Salt (DYNAMICS)  max=  3.75568210357124E+01
DEBUG_STATS_RL:                Salt (DYNAMICS) mean=  3.46619902619048E+01
DEBUG_STATS_RL:                Salt (DYNAMICS) S.D.=  4.90704346576841E-01
DEBUG_STATS_RL:                  Gu (DYNAMICS)  min= -2.37450625979604E-01
DEBUG_STATS_RL:                  Gu (DYNAMICS)  max=  1.90372832320529E-01
DEBUG_STATS_RL:                  Gu (DYNAMICS) mean=  4.29396869377999E-03
DEBUG_STATS_RL:                  Gu (DYNAMICS) S.D.=  2.23500083903715E-02
DEBUG_STATS_RL:                  Gv (DYNAMICS)  min= -2.16845475113687E-01
DEBUG_STATS_RL:                  Gv (DYNAMICS)  max=  1.45076205029425E-01
DEBUG_STATS_RL:                  Gv (DYNAMICS) mean=  3.00619656458544E-04
DEBUG_STATS_RL:                  Gv (DYNAMICS) S.D.=  1.29273136717127E-02
DEBUG_STATS_RL:    cg2d_b (SOLVE_FOR_PRESSURE)  min= -1.15725688196997E+05
DEBUG_STATS_RL:    cg2d_b (SOLVE_FOR_PRESSURE)  max=  9.47299008839300E+04
DEBUG_STATS_RL:    cg2d_b (SOLVE_FOR_PRESSURE) mean= -7.56414540569408E-06
DEBUG_STATS_RL:    cg2d_b (SOLVE_FOR_PRESSURE) S.D.=  4.81879294339539E+04
 cg2d: Sum(rhs),rhsMax =  -2.90667880875617E-07  8.14393599200562E+00
(PID.TID 0000.0001)  cg2d: iter=     1 ; resid.=  1.07039659467552E-01
(PID.TID 0000.0001)  cg2d: iter=     2 ; resid.=  2.80265181291141E-02
(PID.TID 0000.0001)  cg2d: iter=     3 ; resid.=  8.35437449245979E-03
(PID.TID 0000.0001)  cg2d: iter=     4 ; resid.=  2.45644746564514E-03
(PID.TID 0000.0001)  cg2d: iter=     5 ; resid.=  7.84503451839373E-04
(PID.TID 0000.0001)  cg2d: iter=     6 ; resid.=  2.37550859521784E-04
(PID.TID 0000.0001)  cg2d: iter=     7 ; resid.=  7.00599254236939E-05
(PID.TID 0000.0001)  cg2d: iter=     8 ; resid.=  2.40251351210712E-05
(PID.TID 0000.0001)  cg2d: iter=     9 ; resid.=  8.71801246685379E-06
(PID.TID 0000.0001)  cg2d: iter=    10 ; resid.=  3.08116791350588E-06
(PID.TID 0000.0001)  cg2d: iter=    11 ; resid.=  1.12385145239460E-06
(PID.TID 0000.0001)  cg2d: iter=    12 ; resid.=  3.83592727190956E-07
(PID.TID 0000.0001)  cg2d: iter=    13 ; resid.=  1.26046104441848E-07
(PID.TID 0000.0001)  cg2d: iter=    14 ; resid.=  3.89818235262313E-08
(PID.TID 0000.0001)  cg2d: iter=    15 ; resid.=  1.11537170799336E-08
(PID.TID 0000.0001)  cg2d: iter=    16 ; resid.=  3.11030805669010E-09
(PID.TID 0000.0001)  cg2d: iter=    17 ; resid.=  9.13518576763777E-10
(PID.TID 0000.0001)  cg2d: iter=    18 ; resid.=  2.95080428464132E-10
(PID.TID 0000.0001)  cg2d: iter=    19 ; resid.=  9.41199775975749E-11
(PID.TID 0000.0001)  cg2d: iter=    20 ; resid.=  3.63223368426464E-11
(PID.TID 0000.0001)  cg2d: iter=    21 ; resid.=  1.38274847128777E-11
(PID.TID 0000.0001)  cg2d: iter=    22 ; resid.=  4.18721116569116E-12
(PID.TID 0000.0001)  cg2d: iter=    23 ; resid.=  1.22129547479971E-12
(PID.TID 0000.0001)  cg2d: iter=    24 ; resid.=  3.96367450990116E-13
(PID.TID 0000.0001)  cg2d: iter=    25 ; resid.=  1.25721357593023E-13
(PID.TID 0000.0001)  cg2d: iter=    26 ; resid.=  4.22810083060219E-14
DEBUG_STATS_RL:    cg2d_x (SOLVE_FOR_PRESSURE)  min= -1.41865652214479E+01
DEBUG_STATS_RL:    cg2d_x (SOLVE_FOR_PRESSURE)  max=  9.29173234559975E+00
DEBUG_STATS_RL:    cg2d_x (SOLVE_FOR_PRESSURE) mean= -1.55152466016765E+00
DEBUG_STATS_RL:    cg2d_x (SOLVE_FOR_PRESSURE) S.D.=  6.23617900377764E+00
(PID.TID 0000.0001)      cg2d_init_res =   4.71986811449198E-01
(PID.TID 0000.0001)      cg2d_iters(min,last) =      -1      26
(PID.TID 0000.0001)      cg2d_last_res =   4.22810083060219E-14
(PID.TID 0000.0001) // =======================================================
(PID.TID 0000.0001) // Begin MONITOR dynamic field statistics
(PID.TID 0000.0001) // =======================================================
(PID.TID 0000.0001) %MON time_tsnumber                =                     2
(PID.TID 0000.0001) %MON time_secondsf                =   1.8000000000000E+03
(PID.TID 0000.0001) %MON dynstat_eta_max              =   9.4716945418958E-01
(PID.TID 0000.0001) %MON dynstat_eta_min              =  -1.4461330500966E+00
(PID.TID 0000.0001) %MON dynstat_eta_mean             =   8.2481982439538E-11
(PID.TID 0000.0001) %MON dynstat_eta_sd               =   5.6131067245337E-01
(PID.TID 0000.0001) %MON dynstat_eta_del2             =   9.7631170601624E-04
(PID.TID 0000.0001) %MON dynstat_uvel_max             =   1.9034575140977E-01
(PID.TID 0000.0001) %MON dynstat_uvel_min             =  -2.3655316610877E-01
(PID.TID 0000.0001) %MON dynstat_uvel_mean            =   1.8495021346247E-03
(PID.TID 0000.0001) %MON dynstat_uvel_sd              =   1.3039246503759E-02
(PID.TID 0000.0001) %MON dynstat_uvel_del2            =   4.9428152066991E-05
(PID.TID 0000.0001) %MON dynstat_vvel_max             =   1.4479200199569E-01
(PID.TID 0000.0001) %MON dynstat_vvel_min             =  -2.1639226076727E-01
(PID.TID 0000.0001) %MON dynstat_vvel_mean            =  -5.8495279299684E-04
(PID.TID 0000.0001) %MON dynstat_vvel_sd              =   7.6338062785299E-03
(PID.TID 0000.0001) %MON dynstat_vvel_del2            =   3.9520908922857E-05
(PID.TID 0000.0001) %MON dynstat_wvel_max             =   7.1310166547482E-05
(PID.TID 0000.0001) %MON dynstat_wvel_min             =  -9.1448078185413E-05
(PID.TID 0000.0001) %MON dynstat_wvel_mean            =   1.6739732622763E-16
(PID.TID 0000.0001) %MON dynstat_wvel_sd              =   4.5873218907963E-06
(PID.TID 0000.0001) %MON dynstat_wvel_del2            =   4.6760391931535E-08
(PID.TID 0000.0001) %MON dynstat_theta_max            =   3.0245976096790E+01
(PID.TID 0000.0001) %MON dynstat_theta_min            =  -3.4674805677915E+00
(PID.TID 0000.0001) %MON dynstat_theta_mean           =   3.8021258935135E+00
(PID.TID 0000.0001) %MON dynstat_theta_sd             =   4.5122852619755E+00
(PID.TID 0000.0001) %MON dynstat_theta_del2           =   2.5989375565275E-03
(PID.TID 0000.0001) %MON dynstat_salt_max             =   3.7556821035712E+01
(PID.TID 0000.0001) %MON dynstat_salt_min             =   3.1484590045352E+01
(PID.TID 0000.0001) %MON dynstat_salt_mean            =   3.4614647682470E+01
(PID.TID 0000.0001) %MON dynstat_salt_sd              =   3.1408622874748E-01
(PID.TID 0000.0001) %MON dynstat_salt_del2            =   4.0545628427837E-04
(PID.TID 0000.0001) %MON forcing_qnet_max             =   3.5073840884534E+02
(PID.TID 0000.0001) %MON forcing_qnet_min             =  -3.3217138111520E+02
(PID.TID 0000.0001) %MON forcing_qnet_mean            =  -8.2620726446563E+01
(PID.TID 0000.0001) %MON forcing_qnet_sd              =   9.8280740889820E+01
(PID.TID 0000.0001) %MON forcing_qnet_del2            =   5.8624217286591E-01
(PID.TID 0000.0001) %MON forcing_qsw_max              =   3.3124034508282E+01
(PID.TID 0000.0001) %MON forcing_qsw_min              =  -3.5303700717653E+02
(PID.TID 0000.0001) %MON forcing_qsw_mean             =  -1.9660994328121E+02
(PID.TID 0000.0001) %MON forcing_qsw_sd               =   7.3859453569794E+01
(PID.TID 0000.0001) %MON forcing_qsw_del2             =   3.3355388307514E-01
(PID.TID 0000.0001) %MON forcing_empmr_max            =   8.3055189719459E-04
(PID.TID 0000.0001) %MON forcing_empmr_min            =  -6.3510783118475E-04
(PID.TID 0000.0001) %MON forcing_empmr_mean           =  -1.4966980484897E-05
(PID.TID 0000.0001) %MON forcing_empmr_sd             =   4.3544571111015E-05
(PID.TID 0000.0001) %MON forcing_empmr_del2           =   8.1605948162071E-07
(PID.TID 0000.0001) %MON forcing_fu_max               =   1.3088508857099E-01
(PID.TID 0000.0001) %MON forcing_fu_min               =  -1.1232360332989E-01
(PID.TID 0000.0001) %MON forcing_fu_mean              =  -4.3484278349094E-03
(PID.TID 0000.0001) %MON forcing_fu_sd                =   4.0503244989635E-02
(PID.TID 0000.0001) %MON forcing_fu_del2              =   1.3934732888833E-04
(PID.TID 0000.0001) %MON forcing_fv_max               =   9.4386563591285E-02
(PID.TID 0000.0001) %MON forcing_fv_min               =  -8.4880449940308E-02
(PID.TID 0000.0001) %MON forcing_fv_mean              =  -3.3883847879559E-03
(PID.TID 0000.0001) %MON forcing_fv_sd                =   1.7611619624832E-02
(PID.TID 0000.0001) %MON forcing_fv_del2              =   8.3862971302203E-05
(PID.TID 0000.0001) %MON trAdv_CFL_u_max              =   6.9598600733348E-04
(PID.TID 0000.0001) %MON trAdv_CFL_v_max              =   6.2384126924382E-04
(PID.TID 0000.0001) %MON trAdv_CFL_w_max              =   1.2654063613049E-03
(PID.TID 0000.0001) %MON advcfl_uvel_max              =   7.1149382987493E-04
(PID.TID 0000.0001) %MON advcfl_vvel_max              =   6.2283771485130E-04
(PID.TID 0000.0001) %MON advcfl_wvel_max              =   3.2921308146749E-03
(PID.TID 0000.0001) %MON advcfl_W_hf_max              =   1.4679173824467E-03
(PID.TID 0000.0001) %MON pe_b_mean                    =   4.0607876996346E-04
(PID.TID 0000.0001) %MON ke_max                       =   3.1239922223345E-02
(PID.TID 0000.0001) %MON ke_mean                      =   1.0742571745037E-04
(PID.TID 0000.0001) %MON ke_vol                       =   1.2571476858570E+18
(PID.TID 0000.0001) %MON vort_r_min                   =  -9.0718439315792E-07
(PID.TID 0000.0001) %MON vort_r_max                   =   9.9382927955031E-07
(PID.TID 0000.0001) %MON vort_a_mean                  =  -2.4002453570026E-05
(PID.TID 0000.0001) %MON vort_a_sd                    =   7.3138175419521E-05
(PID.TID 0000.0001) %MON vort_p_mean                  =  -2.8585773838204E-05
(PID.TID 0000.0001) %MON vort_p_sd                    =   1.1453381953383E-04
(PID.TID 0000.0001) %MON surfExpan_theta_mean         =  -1.2695862202466E-05
(PID.TID 0000.0001) %MON surfExpan_salt_mean          =  -1.0887840489684E-06
(PID.TID 0000.0001) // =======================================================
(PID.TID 0000.0001) // End MONITOR dynamic field statistics
(PID.TID 0000.0001) // =======================================================
(PID.TID 0000.0001) // =======================================================
(PID.TID 0000.0001) // Begin MONITOR SEAICE statistics
(PID.TID 0000.0001) // =======================================================
(PID.TID 0000.0001) %MON seaice_tsnumber              =                     2
(PID.TID 0000.0001) %MON seaice_time_sec              =   1.8000000000000E+03
(PID.TID 0000.0001) %MON seaice_uice_max              =   3.0275737954726E-01
(PID.TID 0000.0001) %MON seaice_uice_min              =  -3.8531779639081E-01
(PID.TID 0000.0001) %MON seaice_uice_mean             =  -2.6317130410568E-03
(PID.TID 0000.0001) %MON seaice_uice_sd               =   1.0284383359154E-01
(PID.TID 0000.0001) %MON seaice_uice_del2             =   5.5812864278934E-04
(PID.TID 0000.0001) %MON seaice_vice_max              =   1.2779831134826E-01
(PID.TID 0000.0001) %MON seaice_vice_min              =  -2.7274776939506E-01
(PID.TID 0000.0001) %MON seaice_vice_mean             =  -5.8626600830315E-03
(PID.TID 0000.0001) %MON seaice_vice_sd               =   3.8553426052548E-02
(PID.TID 0000.0001) %MON seaice_vice_del2             =   3.3259938534488E-04
(PID.TID 0000.0001) %MON seaice_area_max              =   9.5000000000000E-01
(PID.TID 0000.0001) %MON seaice_area_min              =   0.0000000000000E+00
(PID.TID 0000.0001) %MON seaice_area_mean             =   4.7062409445010E-03
(PID.TID 0000.0001) %MON seaice_area_sd               =   6.6651740135889E-02
(PID.TID 0000.0001) %MON seaice_area_del2             =   1.9431691237004E-03
(PID.TID 0000.0001) %MON seaice_heff_max              =   1.0003740496349E+00
(PID.TID 0000.0001) %MON seaice_heff_min              =   0.0000000000000E+00
(PID.TID 0000.0001) %MON seaice_heff_mean             =   4.9494216640536E-03
(PID.TID 0000.0001) %MON seaice_heff_sd               =   7.0154321904179E-02
(PID.TID 0000.0001) %MON seaice_heff_del2             =   2.0471276844900E-03
(PID.TID 0000.0001) %MON seaice_hsnow_max             =   2.0018009727248E-01
(PID.TID 0000.0001) %MON seaice_hsnow_min             =   0.0000000000000E+00
(PID.TID 0000.0001) %MON seaice_hsnow_mean            =   9.8987884175262E-04
(PID.TID 0000.0001) %MON seaice_hsnow_sd              =   1.4035853620177E-02
(PID.TID 0000.0001) %MON seaice_hsnow_del2            =   4.0972635431028E-04
(PID.TID 0000.0001) // =======================================================
(PID.TID 0000.0001) // End MONITOR SEAICE statistics
(PID.TID 0000.0001) // =======================================================
(PID.TID 0000.0001) // =======================================================
(PID.TID 0000.0001) // Begin MONITOR ptracer field statistics
(PID.TID 0000.0001) // =======================================================
(PID.TID 0000.0001) %MON trcstat_ptracer01_max        =   3.5229157561334E+00
(PID.TID 0000.0001) %MON trcstat_ptracer01_min        =  -2.8353598963488E-01
(PID.TID 0000.0001) %MON trcstat_ptracer01_mean       =   2.1995423841099E+00
(PID.TID 0000.0001) %MON trcstat_ptracer01_sd         =   5.6156896663837E-01
(PID.TID 0000.0001) %MON trcstat_ptracer01_del2       =   7.9866567950365E-04
(PID.TID 0000.0001) %MON trcstat_ptracer02_max        =   4.8723212238917E+01
(PID.TID 0000.0001) %MON trcstat_ptracer02_min        =  -4.5786428118307E+00
(PID.TID 0000.0001) %MON trcstat_ptracer02_mean       =   3.1443337874086E+01
(PID.TID 0000.0001) %MON trcstat_ptracer02_sd         =   7.7586519460560E+00
(PID.TID 0000.0001) %MON trcstat_ptracer02_del2       =   1.1996313974721E-02
(PID.TID 0000.0001) %MON trcstat_ptracer03_max        =   1.0530612047152E-03
(PID.TID 0000.0001) %MON trcstat_ptracer03_min        =  -1.3382057674893E-04
(PID.TID 0000.0001) %MON trcstat_ptracer03_mean       =   5.7796136643978E-04
(PID.TID 0000.0001) %MON trcstat_ptracer03_sd         =   1.2481370955052E-04
(PID.TID 0000.0001) %MON trcstat_ptracer03_del2       =   5.1336346369218E-07
(PID.TID 0000.0001) %MON trcstat_ptracer04_max        =   1.9892520675604E+02
(PID.TID 0000.0001) %MON trcstat_ptracer04_min        =  -2.5401306446204E+01
(PID.TID 0000.0001) %MON trcstat_ptracer04_mean       =   9.1188438558244E+01
(PID.TID 0000.0001) %MON trcstat_ptracer04_sd         =   4.6073735251376E+01
(PID.TID 0000.0001) %MON trcstat_ptracer04_del2       =   3.6128105560202E-02
(PID.TID 0000.0001) %MON trcstat_ptracer05_max        =   5.6664023723743E-01
(PID.TID 0000.0001) %MON trcstat_ptracer05_min        =  -1.8231109074498E-02
(PID.TID 0000.0001) %MON trcstat_ptracer05_mean       =   2.0585625613607E-03
(PID.TID 0000.0001) %MON trcstat_ptracer05_sd         =   1.7210520406388E-02
(PID.TID 0000.0001) %MON trcstat_ptracer05_del2       =   1.1522552088720E-04
(PID.TID 0000.0001) %MON trcstat_ptracer06_max        =   9.0662437957989E+00
(PID.TID 0000.0001) %MON trcstat_ptracer06_min        =  -2.9169774519197E-01
(PID.TID 0000.0001) %MON trcstat_ptracer06_mean       =   3.2937000981770E-02
(PID.TID 0000.0001) %MON trcstat_ptracer06_sd         =   2.7536832650221E-01
(PID.TID 0000.0001) %MON trcstat_ptracer06_del2       =   1.8436083341952E-03
(PID.TID 0000.0001) %MON trcstat_ptracer07_max        =   5.6664023025628E-04
(PID.TID 0000.0001) %MON trcstat_ptracer07_min        =  -1.8231109859292E-05
(PID.TID 0000.0001) %MON trcstat_ptracer07_mean       =   2.0585625599348E-06
(PID.TID 0000.0001) %MON trcstat_ptracer07_sd         =   1.7210520378720E-05
(PID.TID 0000.0001) %MON trcstat_ptracer07_del2       =   1.1522552095845E-07
(PID.TID 0000.0001) %MON trcstat_ptracer08_max        =   5.5059994604790E-02
(PID.TID 0000.0001) %MON trcstat_ptracer08_min        =  -4.0824670748521E-03
(PID.TID 0000.0001) %MON trcstat_ptracer08_mean       =   3.9183568747137E-05
(PID.TID 0000.0001) %MON trcstat_ptracer08_sd         =   7.8355248905967E-04
(PID.TID 0000.0001) %MON trcstat_ptracer08_del2       =   7.9076009417737E-06
(PID.TID 0000.0001) %MON trcstat_ptracer09_max        =   8.8095991367665E-01
(PID.TID 0000.0001) %MON trcstat_ptracer09_min        =  -6.5319473197633E-02
(PID.TID 0000.0001) %MON trcstat_ptracer09_mean       =   6.2693709995720E-04
(PID.TID 0000.0001) %MON trcstat_ptracer09_sd         =   1.2536839824957E-02
(PID.TID 0000.0001) %MON trcstat_ptracer09_del2       =   1.2652161506838E-04
(PID.TID 0000.0001) %MON trcstat_ptracer10_max        =   5.5059994808335E-05
(PID.TID 0000.0001) %MON trcstat_ptracer10_min        =  -4.0824671221430E-06
(PID.TID 0000.0001) %MON trcstat_ptracer10_mean       =   3.9183568807005E-08
(PID.TID 0000.0001) %MON trcstat_ptracer10_sd         =   7.8355249225091E-07
(PID.TID 0000.0001) %MON trcstat_ptracer10_del2       =   7.9076011017736E-09
(PID.TID 0000.0001) %MON trcstat_ptracer11_max        =   1.9117542199244E-02
(PID.TID 0000.0001) %MON trcstat_ptracer11_min        =  -1.2039393902634E-03
(PID.TID 0000.0001) %MON trcstat_ptracer11_mean       =   6.9562020611000E-06
(PID.TID 0000.0001) %MON trcstat_ptracer11_sd         =   1.9396363954116E-04
(PID.TID 0000.0001) %MON trcstat_ptracer11_del2       =   2.3339484340541E-06
(PID.TID 0000.0001) %MON trcstat_ptracer12_max        =   1.4605576245302E-01
(PID.TID 0000.0001) %MON trcstat_ptracer12_min        =  -1.2618118014916E-02
(PID.TID 0000.0001) %MON trcstat_ptracer12_mean       =   7.0242660373943E-05
(PID.TID 0000.0001) %MON trcstat_ptracer12_sd         =   1.6984818977825E-03
(PID.TID 0000.0001) %MON trcstat_ptracer12_del2       =   2.1128886670645E-05
(PID.TID 0000.0001) %MON trcstat_ptracer13_max        =   2.3368921992483E+00
(PID.TID 0000.0001) %MON trcstat_ptracer13_min        =  -2.0188988823865E-01
(PID.TID 0000.0001) %MON trcstat_ptracer13_mean       =   1.1238825659877E-03
(PID.TID 0000.0001) %MON trcstat_ptracer13_sd         =   2.7175710364521E-02
(PID.TID 0000.0001) %MON trcstat_ptracer13_del2       =   3.3806218673032E-04
(PID.TID 0000.0001) %MON trcstat_ptracer14_max        =   1.4605577129189E-04
(PID.TID 0000.0001) %MON trcstat_ptracer14_min        =  -1.2618117694891E-05
(PID.TID 0000.0001) %MON trcstat_ptracer14_mean       =   7.0242660632606E-08
(PID.TID 0000.0001) %MON trcstat_ptracer14_sd         =   1.6984819157309E-06
(PID.TID 0000.0001) %MON trcstat_ptracer14_del2       =   2.1128886867202E-08
(PID.TID 0000.0001) %MON trcstat_ptracer15_max        =   9.2441294380615E-01
(PID.TID 0000.0001) %MON trcstat_ptracer15_min        =  -3.7246528173117E-02
(PID.TID 0000.0001) %MON trcstat_ptracer15_mean       =   4.1793753561699E-04
(PID.TID 0000.0001) %MON trcstat_ptracer15_sd         =   9.9504117530019E-03
(PID.TID 0000.0001) %MON trcstat_ptracer15_del2       =   1.4014447940652E-04
(PID.TID 0000.0001) %MON trcstat_ptracer16_max        =   1.3565434574109E-01
(PID.TID 0000.0001) %MON trcstat_ptracer16_min        =  -4.9334325568795E-03
(PID.TID 0000.0001) %MON trcstat_ptracer16_mean       =   6.2353961369578E-04
(PID.TID 0000.0001) %MON trcstat_ptracer16_sd         =   1.6635369827520E-03
(PID.TID 0000.0001) %MON trcstat_ptracer16_del2       =   1.5241715772929E-05
(PID.TID 0000.0001) %MON trcstat_ptracer17_max        =   2.1707609275792E+00
(PID.TID 0000.0001) %MON trcstat_ptracer17_min        =  -7.8934911572474E-02
(PID.TID 0000.0001) %MON trcstat_ptracer17_mean       =   9.9902565513598E-03
(PID.TID 0000.0001) %MON trcstat_ptracer17_sd         =   2.6655316952391E-02
(PID.TID 0000.0001) %MON trcstat_ptracer17_del2       =   2.4405618457849E-04
(PID.TID 0000.0001) %MON trcstat_ptracer18_max        =   1.3567255318276E-04
(PID.TID 0000.0001) %MON trcstat_ptracer18_min        =  -4.9334318823691E-06
(PID.TID 0000.0001) %MON trcstat_ptracer18_mean       =   6.2439103413843E-07
(PID.TID 0000.0001) %MON trcstat_ptracer18_sd         =   1.6659572999437E-06
(PID.TID 0000.0001) %MON trcstat_ptracer18_del2       =   1.5253511472862E-08
(PID.TID 0000.0001) %MON trcstat_ptracer19_max        =   1.9602647364533E+01
(PID.TID 0000.0001) %MON trcstat_ptracer19_min        =  -2.8995893598701E-01
(PID.TID 0000.0001) %MON trcstat_ptracer19_mean       =   1.3463472913019E-01
(PID.TID 0000.0001) %MON trcstat_ptracer19_sd         =   3.4103658849550E-01
(PID.TID 0000.0001) %MON trcstat_ptracer19_del2       =   2.0155705849463E-03
(PID.TID 0000.0001) %MON trcstat_ptracer20_max        =   3.2645725251306E-01
(PID.TID 0000.0001) %MON trcstat_ptracer20_min        =  -2.8765216641953E-02
(PID.TID 0000.0001) %MON trcstat_ptracer20_mean       =   5.1452413239677E-04
(PID.TID 0000.0001) %MON trcstat_ptracer20_sd         =   5.8891018258202E-03
(PID.TID 0000.0001) %MON trcstat_ptracer20_del2       =   6.6619709152945E-05
(PID.TID 0000.0001) %MON trcstat_ptracer21_max        =   8.5303937117615E-01
(PID.TID 0000.0001) %MON trcstat_ptracer21_min        =  -1.2483863511985E-01
(PID.TID 0000.0001) %MON trcstat_ptracer21_mean       =   3.2426750973262E-03
(PID.TID 0000.0001) %MON trcstat_ptracer21_sd         =   2.2844358525549E-02
(PID.TID 0000.0001) %MON trcstat_ptracer21_del2       =   2.1834163749623E-04
(PID.TID 0000.0001) %MON trcstat_ptracer22_max        =   1.7346804646974E-01
(PID.TID 0000.0001) %MON trcstat_ptracer22_min        =  -5.0759254059477E-02
(PID.TID 0000.0001) %MON trcstat_ptracer22_mean       =   6.9398561144615E-05
(PID.TID 0000.0001) %MON trcstat_ptracer22_sd         =   1.9226941845247E-03
(PID.TID 0000.0001) %MON trcstat_ptracer22_del2       =   4.2776131044641E-05
(PID.TID 0000.0001) %MON trcstat_ptracer23_max        =   1.0306889131485E-01
(PID.TID 0000.0001) %MON trcstat_ptracer23_min        =  -2.9816722951224E-02
(PID.TID 0000.0001) %MON trcstat_ptracer23_mean       =   3.2214028954915E-05
(PID.TID 0000.0001) %MON trcstat_ptracer23_sd         =   7.7844378169732E-04
(PID.TID 0000.0001) %MON trcstat_ptracer23_del2       =   2.0274973361976E-05
(PID.TID 0000.0001) %MON trcstat_ptracer24_max        =   1.4147669083886E-01
(PID.TID 0000.0001) %MON trcstat_ptracer24_min        =  -2.4583357917296E-02
(PID.TID 0000.0001) %MON trcstat_ptracer24_mean       =   3.2639501894045E-05
(PID.TID 0000.0001) %MON trcstat_ptracer24_sd         =   7.1923241460290E-04
(PID.TID 0000.0001) %MON trcstat_ptracer24_del2       =   1.5006869905286E-05
(PID.TID 0000.0001) %MON trcstat_ptracer25_max        =   2.2056762095184E-03
(PID.TID 0000.0001) %MON trcstat_ptracer25_min        =  -7.3803500253155E-04
(PID.TID 0000.0001) %MON trcstat_ptracer25_mean       =   1.2620049156414E-07
(PID.TID 0000.0001) %MON trcstat_ptracer25_sd         =   1.4894803241616E-05
(PID.TID 0000.0001) %MON trcstat_ptracer25_del2       =   1.9764047892940E-07
(PID.TID 0000.0001) %MON trcstat_ptracer26_max        =   2.6497367528521E-02
(PID.TID 0000.0001) %MON trcstat_ptracer26_min        =  -2.0297893486109E-03
(PID.TID 0000.0001) %MON trcstat_ptracer26_mean       =   6.9555628349375E-05
(PID.TID 0000.0001) %MON trcstat_ptracer26_sd         =   7.6932001044408E-04
(PID.TID 0000.0001) %MON trcstat_ptracer26_del2       =   5.2236883057480E-06
(PID.TID 0000.0001) %MON trcstat_ptracer27_max        =   6.3270941093266E+00
(PID.TID 0000.0001) %MON trcstat_ptracer27_min        =  -3.0456463312648E+00
(PID.TID 0000.0001) %MON trcstat_ptracer27_mean       =   1.4933395080954E-03
(PID.TID 0000.0001) %MON trcstat_ptracer27_sd         =   4.9547311359605E-02
(PID.TID 0000.0001) %MON trcstat_ptracer27_del2       =   1.2787985681792E-03
(PID.TID 0000.0001) %MON trcstat_ptracer28_max        =   3.3817138443891E+00
(PID.TID 0000.0001) %MON trcstat_ptracer28_min        =  -1.7890134234210E+00
(PID.TID 0000.0001) %MON trcstat_ptracer28_mean       =   7.2971579383774E-04
(PID.TID 0000.0001) %MON trcstat_ptracer28_sd         =   2.0312750899252E-02
(PID.TID 0000.0001) %MON trcstat_ptracer28_del2       =   6.0230069975481E-04
(PID.TID 0000.0001) %MON trcstat_ptracer29_max        =   9.0073957423114E-01
(PID.TID 0000.0001) %MON trcstat_ptracer29_min        =  -5.9000059014334E-01
(PID.TID 0000.0001) %MON trcstat_ptracer29_mean       =   1.8176688464881E-04
(PID.TID 0000.0001) %MON trcstat_ptracer29_sd         =   5.1803054503963E-03
(PID.TID 0000.0001) %MON trcstat_ptracer29_del2       =   1.2758908281941E-04
(PID.TID 0000.0001) %MON trcstat_ptracer30_max        =   7.0892939642625E-03
(PID.TID 0000.0001) %MON trcstat_ptracer30_min        =  -1.7721076685847E-02
(PID.TID 0000.0001) %MON trcstat_ptracer30_mean       =  -2.9015704891742E-07
(PID.TID 0000.0001) %MON trcstat_ptracer30_sd         =   9.3096465362661E-05
(PID.TID 0000.0001) %MON trcstat_ptracer30_del2       =   1.4298249086795E-06
(PID.TID 0000.0001) %MON trcstat_ptracer31_max        =   3.8502564076919E-01
(PID.TID 0000.0001) %MON trcstat_ptracer31_min        =  -4.8712027598596E-02
(PID.TID 0000.0001) %MON trcstat_ptracer31_mean       =   6.8434106379406E-04
(PID.TID 0000.0001) %MON trcstat_ptracer31_sd         =   8.4607507013976E-03
(PID.TID 0000.0001) %MON trcstat_ptracer31_del2       =   7.2597148728731E-05
(PID.TID 0000.0001) %MON trcstat_ptracer32_max        =   2.5072890356713E+03
(PID.TID 0000.0001) %MON trcstat_ptracer32_min        =   1.5724827887548E+03
(PID.TID 0000.0001) %MON trcstat_ptracer32_mean       =   2.3412051063979E+03
(PID.TID 0000.0001) %MON trcstat_ptracer32_sd         =   7.0737803092970E+01
(PID.TID 0000.0001) %MON trcstat_ptracer32_del2       =   8.7979109587227E-02
(PID.TID 0000.0001) %MON trcstat_ptracer33_max        =   1.0074550935548E+02
(PID.TID 0000.0001) %MON trcstat_ptracer33_min        =  -4.4826253246609E+00
(PID.TID 0000.0001) %MON trcstat_ptracer33_mean       =   4.9148474166364E-01
(PID.TID 0000.0001) %MON trcstat_ptracer33_sd         =   3.4638920045717E+00
(PID.TID 0000.0001) %MON trcstat_ptracer33_del2       =   1.9487141900086E-02
(PID.TID 0000.0001) %MON trcstat_ptracer34_max        =   2.6214992390708E+01
(PID.TID 0000.0001) %MON trcstat_ptracer34_min        =  -6.2064029610742E-01
(PID.TID 0000.0001) %MON trcstat_ptracer34_mean       =   1.8756003461114E-01
(PID.TID 0000.0001) %MON trcstat_ptracer34_sd         =   3.2783630083332E-01
(PID.TID 0000.0001) %MON trcstat_ptracer34_del2       =   3.0701718385402E-03
(PID.TID 0000.0001) %MON trcstat_ptracer35_max        =   3.8030507118572E+00
(PID.TID 0000.0001) %MON trcstat_ptracer35_min        =  -3.1601525705302E-02
(PID.TID 0000.0001) %MON trcstat_ptracer35_mean       =   2.6568549825276E-02
(PID.TID 0000.0001) %MON trcstat_ptracer35_sd         =   5.3492835019046E-02
(PID.TID 0000.0001) %MON trcstat_ptracer35_del2       =   4.3818450058512E-04
(PID.TID 0000.0001) %MON trcstat_ptracer36_max        =   2.7204233225350E+03
(PID.TID 0000.0001) %MON trcstat_ptracer36_min        =   1.6414360595851E+03
(PID.TID 0000.0001) %MON trcstat_ptracer36_mean       =   2.4566175398861E+03
(PID.TID 0000.0001) %MON trcstat_ptracer36_sd         =   5.3615678047307E+01
(PID.TID 0000.0001) %MON trcstat_ptracer36_del2       =   6.6386218388032E-02
(PID.TID 0000.0001) %MON trcstat_ptracer37_max        =   4.6474174683234E+02
(PID.TID 0000.0001) %MON trcstat_ptracer37_min        =  -5.3374152105537E+01
(PID.TID 0000.0001) %MON trcstat_ptracer37_mean       =   1.8800693181204E+02
(PID.TID 0000.0001) %MON trcstat_ptracer37_sd         =   5.4473468052419E+01
(PID.TID 0000.0001) %MON trcstat_ptracer37_del2       =   8.9559021019862E-02
(PID.TID 0000.0001) %MON trcstat_ptracer38_max        =   6.6071993228141E+00
(PID.TID 0000.0001) %MON trcstat_ptracer38_min        =  -4.8989604153207E-01
(PID.TID 0000.0001) %MON trcstat_ptracer38_mean       =   4.7020282655809E-03
(PID.TID 0000.0001) %MON trcstat_ptracer38_sd         =   9.4026299329276E-02
(PID.TID 0000.0001) %MON trcstat_ptracer38_del2       =   9.4891212816549E-04
(PID.TID 0000.0001) %MON trcstat_ptracer39_max        =   1.7526691851839E+01
(PID.TID 0000.0001) %MON trcstat_ptracer39_min        =  -1.5141740947553E+00
(PID.TID 0000.0001) %MON trcstat_ptracer39_mean       =   8.4291192582767E-03
(PID.TID 0000.0001) %MON trcstat_ptracer39_sd         =   2.0381782851922E-01
(PID.TID 0000.0001) %MON trcstat_ptracer39_del2       =   2.5354664020518E-03
(PID.TID 0000.0001) // =======================================================
(PID.TID 0000.0001) // End MONITOR ptracers field statistics
(PID.TID 0000.0001) // =======================================================
(PID.TID 0000.0001) EXF_SET_FLD: processing field "apco2",  file: apCO2_2000
(PID.TID 0000.0001) EXF_SET_FLD:   myIter, count0, count1:         2     12      1
(PID.TID 0000.0001) EXF_SET_FLD:   first, changed, fac:   F   F   0.499327957E+00
(PID.TID 0000.0001) EXF_SET_UV: processing fields "uwind" & "vwind"
(PID.TID 0000.0001) EXF_SET_UV:   files: EIG_u10m_2000 & EIG_v10m_2000
(PID.TID 0000.0001) EXF_SET_UV:   myIter, count0, count1:         2     12      1
(PID.TID 0000.0001) EXF_SET_UV:   first, changed, fac:   F   F   0.499327957E+00
(PID.TID 0000.0001) EXF_SET_FLD: processing field "atemp",  file: EIG_tmp2m_degC_plus_ECCO_v4r1_ctrl_2000
(PID.TID 0000.0001) EXF_SET_FLD:   myIter, count0, count1:         2     12      1
(PID.TID 0000.0001) EXF_SET_FLD:   first, changed, fac:   F   F   0.499327957E+00
(PID.TID 0000.0001) EXF_SET_FLD: processing field "aqh",  file: EIG_spfh2m_plus_ECCO_v4r1_ctrl_2000
(PID.TID 0000.0001) EXF_SET_FLD:   myIter, count0, count1:         2     12      1
(PID.TID 0000.0001) EXF_SET_FLD:   first, changed, fac:   F   F   0.499327957E+00
(PID.TID 0000.0001) EXF_SET_FLD: processing field "precip",  file: EIG_rain_plus_ECCO_v4r1_ctrl_2000
(PID.TID 0000.0001) EXF_SET_FLD:   myIter, count0, count1:         2     12      1
(PID.TID 0000.0001) EXF_SET_FLD:   first, changed, fac:   F   F   0.499327957E+00
(PID.TID 0000.0001) EXF_SET_FLD: processing field "swdown",  file: EIG_dsw_plus_ECCO_v4r1_ctrl_2000
(PID.TID 0000.0001) EXF_SET_FLD:   myIter, count0, count1:         2     12      1
(PID.TID 0000.0001) EXF_SET_FLD:   first, changed, fac:   F   F   0.499327957E+00
(PID.TID 0000.0001) EXF_SET_FLD: processing field "lwdown",  file: EIG_dlw_plus_ECCO_v4r1_ctrl_2000
(PID.TID 0000.0001) EXF_SET_FLD:   myIter, count0, count1:         2     12      1
(PID.TID 0000.0001) EXF_SET_FLD:   first, changed, fac:   F   F   0.499327957E+00
(PID.TID 0000.0001) EXF_SET_FLD: processing field "runoff",  file: runoff-2d-Fekete-1deg-mon-V4-SMOOTH.bin
(PID.TID 0000.0001) EXF_SET_FLD:   myIter, count0, count1:         2     12      1
(PID.TID 0000.0001) EXF_SET_FLD:   first, changed, fac:   F   F   0.499327957E+00
(PID.TID 0000.0001) // =======================================================
(PID.TID 0000.0001) // Begin MONITOR EXF statistics
(PID.TID 0000.0001) // =======================================================
(PID.TID 0000.0001) %MON exf_tsnumber                 =                     2
(PID.TID 0000.0001) %MON exf_time_sec                 =   1.8000000000000E+03
(PID.TID 0000.0001) %MON exf_ustress_max              =   1.3195158777932E-01
(PID.TID 0000.0001) %MON exf_ustress_min              =  -1.1243081359046E-01
(PID.TID 0000.0001) %MON exf_ustress_mean             =  -4.4186748568804E-03
(PID.TID 0000.0001) %MON exf_ustress_sd               =   4.0088147056976E-02
(PID.TID 0000.0001) %MON exf_ustress_del2             =   1.4490456003956E-04
(PID.TID 0000.0001) %MON exf_vstress_max              =   9.9479501670656E-02
(PID.TID 0000.0001) %MON exf_vstress_min              =  -1.0044246399996E-01
(PID.TID 0000.0001) %MON exf_vstress_mean             =  -3.5079054594309E-03
(PID.TID 0000.0001) %MON exf_vstress_sd               =   1.8014630255357E-02
(PID.TID 0000.0001) %MON exf_vstress_del2             =   9.7286025164143E-05
(PID.TID 0000.0001) %MON exf_hflux_max                =   4.1332201251267E+02
(PID.TID 0000.0001) %MON exf_hflux_min                =  -3.3217041563321E+02
(PID.TID 0000.0001) %MON exf_hflux_mean               =  -8.1852790282429E+01
(PID.TID 0000.0001) %MON exf_hflux_sd                 =   1.0068056256261E+02
(PID.TID 0000.0001) %MON exf_hflux_del2               =   7.3308194303044E-01
(PID.TID 0000.0001) %MON exf_sflux_max                =   8.5103697362802E-08
(PID.TID 0000.0001) %MON exf_sflux_min                =  -6.3521738092040E-07
(PID.TID 0000.0001) %MON exf_sflux_mean               =  -1.5665639133503E-08
(PID.TID 0000.0001) %MON exf_sflux_sd                 =   3.7495641826061E-08
(PID.TID 0000.0001) %MON exf_sflux_del2               =   3.5166153143290E-10
(PID.TID 0000.0001) %MON exf_uwind_max                =   9.5217983552367E+00
(PID.TID 0000.0001) %MON exf_uwind_min                =  -8.7609217157810E+00
(PID.TID 0000.0001) %MON exf_uwind_mean               =  -4.9436190538215E-01
(PID.TID 0000.0001) %MON exf_uwind_sd                 =   4.4177970205442E+00
(PID.TID 0000.0001) %MON exf_uwind_del2               =   1.2107698043108E-02
(PID.TID 0000.0001) %MON exf_vwind_max                =   8.7166206971894E+00
(PID.TID 0000.0001) %MON exf_vwind_min                =  -6.9957471996256E+00
(PID.TID 0000.0001) %MON exf_vwind_mean               =  -3.7884798413602E-01
(PID.TID 0000.0001) %MON exf_vwind_sd                 =   2.2078692772791E+00
(PID.TID 0000.0001) %MON exf_vwind_del2               =   9.5075368847140E-03
(PID.TID 0000.0001) %MON exf_wspeed_max               =   9.5374210959356E+00
(PID.TID 0000.0001) %MON exf_wspeed_min               =   4.8344673359828E-02
(PID.TID 0000.0001) %MON exf_wspeed_mean              =   4.4775885403594E+00
(PID.TID 0000.0001) %MON exf_wspeed_sd                =   2.1750258876853E+00
(PID.TID 0000.0001) %MON exf_wspeed_del2              =   2.6390375707111E-02
(PID.TID 0000.0001) %MON exf_atemp_max                =   3.0188423372215E+02
(PID.TID 0000.0001) %MON exf_atemp_min                =   2.4477123400921E+02
(PID.TID 0000.0001) %MON exf_atemp_mean               =   2.9041294042313E+02
(PID.TID 0000.0001) %MON exf_atemp_sd                 =   9.7907531540154E+00
(PID.TID 0000.0001) %MON exf_atemp_del2               =   9.0505796794436E-02
(PID.TID 0000.0001) %MON exf_aqh_max                  =   1.9838150947169E-02
(PID.TID 0000.0001) %MON exf_aqh_min                  =   3.5624166970998E-04
(PID.TID 0000.0001) %MON exf_aqh_mean                 =   1.1235079527214E-02
(PID.TID 0000.0001) %MON exf_aqh_sd                   =   5.1803124252670E-03
(PID.TID 0000.0001) %MON exf_aqh_del2                 =   5.8601523345740E-05
(PID.TID 0000.0001) %MON exf_lwflux_max               =   1.5497149990758E+02
(PID.TID 0000.0001) %MON exf_lwflux_min               =   4.3040506015932E+00
(PID.TID 0000.0001) %MON exf_lwflux_mean              =   4.1310729217700E+01
(PID.TID 0000.0001) %MON exf_lwflux_sd                =   1.3587912705464E+01
(PID.TID 0000.0001) %MON exf_lwflux_del2              =   1.9930875660578E-01
(PID.TID 0000.0001) %MON exf_evap_max                 =   8.5136969643802E-08
(PID.TID 0000.0001) %MON exf_evap_min                 =  -1.2833285385689E-08
(PID.TID 0000.0001) %MON exf_evap_mean                =   2.6032576892353E-08
(PID.TID 0000.0001) %MON exf_evap_sd                  =   1.7974272638335E-08
(PID.TID 0000.0001) %MON exf_evap_del2                =   1.6638281520553E-10
(PID.TID 0000.0001) %MON exf_precip_max               =   1.4862568013505E-07
(PID.TID 0000.0001) %MON exf_precip_min               =  -8.5442623182415E-09
(PID.TID 0000.0001) %MON exf_precip_mean              =   3.9996862864727E-08
(PID.TID 0000.0001) %MON exf_precip_sd                =   2.9093097890072E-08
(PID.TID 0000.0001) %MON exf_precip_del2              =   3.1033893693993E-10
(PID.TID 0000.0001) %MON exf_swflux_max               =   3.3126192252638E+01
(PID.TID 0000.0001) %MON exf_swflux_min               =  -3.5303553752756E+02
(PID.TID 0000.0001) %MON exf_swflux_mean              =  -1.9692502333234E+02
(PID.TID 0000.0001) %MON exf_swflux_sd                =   7.3605025601258E+01
(PID.TID 0000.0001) %MON exf_swflux_del2              =   9.3067905127989E-01
(PID.TID 0000.0001) %MON exf_swdown_max               =   3.8080807561471E+02
(PID.TID 0000.0001) %MON exf_swdown_min               =  -4.7323131789483E+01
(PID.TID 0000.0001) %MON exf_swdown_mean              =   2.1343025912713E+02
(PID.TID 0000.0001) %MON exf_swdown_sd                =   7.8892848920726E+01
(PID.TID 0000.0001) %MON exf_swdown_del2              =   1.0071696375360E+00
(PID.TID 0000.0001) %MON exf_lwdown_max               =   4.4360509241338E+02
(PID.TID 0000.0001) %MON exf_lwdown_min               =   1.5697716463672E+02
(PID.TID 0000.0001) %MON exf_lwdown_mean              =   3.6918899487219E+02
(PID.TID 0000.0001) %MON exf_lwdown_sd                =   5.1749886667177E+01
(PID.TID 0000.0001) %MON exf_lwdown_del2              =   1.5869221320150E+00
(PID.TID 0000.0001) %MON exf_runoff_max               =   5.5102330949516E-07
(PID.TID 0000.0001) %MON exf_runoff_min               =   0.0000000000000E+00
(PID.TID 0000.0001) %MON exf_runoff_mean              =   1.7013531611290E-09
(PID.TID 0000.0001) %MON exf_runoff_sd                =   1.1342510174431E-08
(PID.TID 0000.0001) %MON exf_runoff_del2              =   1.2652298414614E-10
(PID.TID 0000.0001) %MON exf_apco2_max                =   3.7074056104214E-04
(PID.TID 0000.0001) %MON exf_apco2_min                =   3.6819558761914E-04
(PID.TID 0000.0001) %MON exf_apco2_mean               =   3.6882190311646E-04
(PID.TID 0000.0001) %MON exf_apco2_sd                 =   5.2279178732477E-07
(PID.TID 0000.0001) %MON exf_apco2_del2               =   1.5223095071855E-06
(PID.TID 0000.0001) // =======================================================
(PID.TID 0000.0001) // End MONITOR EXF statistics
(PID.TID 0000.0001) // =======================================================
 EXTERNAL_FIELDS_LOAD,         2 : iP,iLd,i0,i1=   12    1   12    1 ; Wght=  0.4993055556  0.5006944444
 EXTERNAL_FIELDS_LOAD: (fu0,1),fu,fv=  0.0000E+00  0.0000E+00 -8.5251E-04  2.4533E-02
 EXTERNAL_FIELDS_LOAD: SST,SSS,Q,E-P=  0.0000E+00  0.0000E+00 -1.4152E+02 -4.1149E-05
DEBUG_STATS_RL:          Uvel (THERMODYNAMICS)  min= -2.36553166108774E-01
DEBUG_STATS_RL:          Uvel (THERMODYNAMICS)  max=  1.90345751409772E-01
DEBUG_STATS_RL:          Uvel (THERMODYNAMICS) mean=  4.31285872432797E-03
DEBUG_STATS_RL:          Uvel (THERMODYNAMICS) S.D.=  2.22421182195457E-02
DEBUG_STATS_RL:          Vvel (THERMODYNAMICS)  min= -2.16392260767266E-01
DEBUG_STATS_RL:          Vvel (THERMODYNAMICS)  max=  1.44792001995686E-01
DEBUG_STATS_RL:          Vvel (THERMODYNAMICS) mean= -7.12183802623490E-04
DEBUG_STATS_RL:          Vvel (THERMODYNAMICS) S.D.=  1.31728482049378E-02
DEBUG_STATS_RL:          Wvel (THERMODYNAMICS)  min= -9.14480781854128E-05
DEBUG_STATS_RL:          Wvel (THERMODYNAMICS)  max=  7.13101665474821E-05
DEBUG_STATS_RL:          Wvel (THERMODYNAMICS) mean=  1.98484006264833E-07
DEBUG_STATS_RL:          Wvel (THERMODYNAMICS) S.D.=  6.53452633483086E-06
DEBUG_STATS_RL:         Theta (THERMODYNAMICS)  min= -3.46746471139250E+00
DEBUG_STATS_RL:         Theta (THERMODYNAMICS)  max=  3.02457013796577E+01
DEBUG_STATS_RL:         Theta (THERMODYNAMICS) mean=  6.18032041597769E+00
DEBUG_STATS_RL:         Theta (THERMODYNAMICS) S.D.=  6.76152656656041E+00
DEBUG_STATS_RL:          Salt (THERMODYNAMICS)  min=  3.14845910482269E+01
DEBUG_STATS_RL:          Salt (THERMODYNAMICS)  max=  3.75568017079784E+01
DEBUG_STATS_RL:          Salt (THERMODYNAMICS) mean=  3.46619911936054E+01
DEBUG_STATS_RL:          Salt (THERMODYNAMICS) S.D.=  4.90701429674948E-01
DEBUG_STATS_RL:                   PTRACER.0001  min= -2.83494673688245E-01
DEBUG_STATS_RL:                   PTRACER.0001  max=  3.52291344169759E+00
DEBUG_STATS_RL:                   PTRACER.0001 mean=  1.96075877460217E+00
DEBUG_STATS_RL:                   PTRACER.0001 S.D.=  7.55697127166961E-01
DEBUG_STATS_RL:                   GNm1TRC.0001  min=  0.00000000000000E+00
DEBUG_STATS_RL:                   GNm1TRC.0001  max=  0.00000000000000E+00
DEBUG_STATS_RL:                   GNm1TRC.0001 mean=  0.00000000000000E+00
DEBUG_STATS_RL:                   GNm1TRC.0001 S.D.=  0.00000000000000E+00
DEBUG_STATS_RL:                   PTRACER.0002  min= -4.57785785228574E+00
DEBUG_STATS_RL:                   PTRACER.0002  max=  4.87226796156003E+01
DEBUG_STATS_RL:                   PTRACER.0002 mean=  2.77656505905580E+01
DEBUG_STATS_RL:                   PTRACER.0002 S.D.=  1.09474233717399E+01
DEBUG_STATS_RL:                   GNm1TRC.0002  min=  0.00000000000000E+00
DEBUG_STATS_RL:                   GNm1TRC.0002  max=  0.00000000000000E+00
DEBUG_STATS_RL:                   GNm1TRC.0002 mean=  0.00000000000000E+00
DEBUG_STATS_RL:                   GNm1TRC.0002 S.D.=  0.00000000000000E+00
DEBUG_STATS_RL:                   PTRACER.0003  min= -1.33773797176863E-04
DEBUG_STATS_RL:                   PTRACER.0003  max=  1.05305309624305E-03
DEBUG_STATS_RL:                   PTRACER.0003 mean=  5.88652564613366E-04
DEBUG_STATS_RL:                   PTRACER.0003 S.D.=  1.74768309160516E-04
DEBUG_STATS_RL:                   GNm1TRC.0003  min=  0.00000000000000E+00
DEBUG_STATS_RL:                   GNm1TRC.0003  max=  0.00000000000000E+00
DEBUG_STATS_RL:                   GNm1TRC.0003 mean=  0.00000000000000E+00
DEBUG_STATS_RL:                   GNm1TRC.0003 S.D.=  0.00000000000000E+00
DEBUG_STATS_RL:                   PTRACER.0004  min= -2.53995248206818E+01
DEBUG_STATS_RL:                   PTRACER.0004  max=  1.98924299528433E+02
DEBUG_STATS_RL:                   PTRACER.0004 mean=  6.95785124370341E+01
DEBUG_STATS_RL:                   PTRACER.0004 S.D.=  5.06348206916278E+01
DEBUG_STATS_RL:                   GNm1TRC.0004  min=  0.00000000000000E+00
DEBUG_STATS_RL:                   GNm1TRC.0004  max=  0.00000000000000E+00
DEBUG_STATS_RL:                   GNm1TRC.0004 mean=  0.00000000000000E+00
DEBUG_STATS_RL:                   GNm1TRC.0004 S.D.=  0.00000000000000E+00
DEBUG_STATS_RL:                   PTRACER.0005  min= -1.82206382250638E-02
DEBUG_STATS_RL:                   PTRACER.0005  max=  5.66599399917449E-01
DEBUG_STATS_RL:                   PTRACER.0005 mean=  1.19431151958751E-02
DEBUG_STATS_RL:                   PTRACER.0005 S.D.=  4.22047656000701E-02
DEBUG_STATS_RL:                   GNm1TRC.0005  min=  0.00000000000000E+00
DEBUG_STATS_RL:                   GNm1TRC.0005  max=  0.00000000000000E+00
DEBUG_STATS_RL:                   GNm1TRC.0005 mean=  0.00000000000000E+00
DEBUG_STATS_RL:                   GNm1TRC.0005 S.D.=  0.00000000000000E+00
DEBUG_STATS_RL:                   PTRACER.0006  min= -2.91530211601021E-01
DEBUG_STATS_RL:                   PTRACER.0006  max=  9.06559039867919E+00
DEBUG_STATS_RL:                   PTRACER.0006 mean=  1.91089843133998E-01
DEBUG_STATS_RL:                   PTRACER.0006 S.D.=  6.75276249601122E-01
DEBUG_STATS_RL:                   GNm1TRC.0006  min=  0.00000000000000E+00
DEBUG_STATS_RL:                   GNm1TRC.0006  max=  0.00000000000000E+00
DEBUG_STATS_RL:                   GNm1TRC.0006 mean=  0.00000000000000E+00
DEBUG_STATS_RL:                   GNm1TRC.0006 S.D.=  0.00000000000000E+00
DEBUG_STATS_RL:                   PTRACER.0007  min= -1.82206381230387E-05
DEBUG_STATS_RL:                   PTRACER.0007  max=  5.66599392936312E-04
DEBUG_STATS_RL:                   PTRACER.0007 mean=  1.19431151860601E-05
DEBUG_STATS_RL:                   PTRACER.0007 S.D.=  4.22047655258155E-05
DEBUG_STATS_RL:                   GNm1TRC.0007  min=  0.00000000000000E+00
DEBUG_STATS_RL:                   GNm1TRC.0007  max=  0.00000000000000E+00
DEBUG_STATS_RL:                   GNm1TRC.0007 mean=  0.00000000000000E+00
DEBUG_STATS_RL:                   GNm1TRC.0007 S.D.=  0.00000000000000E+00
DEBUG_STATS_RL:                   PTRACER.0008  min= -4.08238136873965E-03
DEBUG_STATS_RL:                   PTRACER.0008  max=  5.50556951565579E-02
DEBUG_STATS_RL:                   PTRACER.0008 mean=  1.93653599450013E-04
DEBUG_STATS_RL:                   PTRACER.0008 S.D.=  1.75263461603139E-03
DEBUG_STATS_RL:                   GNm1TRC.0008  min=  0.00000000000000E+00
DEBUG_STATS_RL:                   GNm1TRC.0008  max=  0.00000000000000E+00
DEBUG_STATS_RL:                   GNm1TRC.0008 mean=  0.00000000000000E+00
DEBUG_STATS_RL:                   GNm1TRC.0008 S.D.=  0.00000000000000E+00
DEBUG_STATS_RL:                   PTRACER.0009  min= -6.53181018998344E-02
DEBUG_STATS_RL:                   PTRACER.0009  max=  8.80891122504926E-01
DEBUG_STATS_RL:                   PTRACER.0009 mean=  3.09845759121025E-03
DEBUG_STATS_RL:                   PTRACER.0009 S.D.=  2.80421538565047E-02
DEBUG_STATS_RL:                   GNm1TRC.0009  min=  0.00000000000000E+00
DEBUG_STATS_RL:                   GNm1TRC.0009  max=  0.00000000000000E+00
DEBUG_STATS_RL:                   GNm1TRC.0009 mean=  0.00000000000000E+00
DEBUG_STATS_RL:                   GNm1TRC.0009 S.D.=  0.00000000000000E+00
DEBUG_STATS_RL:                   PTRACER.0010  min= -4.08238141602939E-06
DEBUG_STATS_RL:                   PTRACER.0010  max=  5.50556953600793E-05
DEBUG_STATS_RL:                   PTRACER.0010 mean=  1.93653599778105E-07
DEBUG_STATS_RL:                   PTRACER.0010 S.D.=  1.75263462382081E-06
DEBUG_STATS_RL:                   GNm1TRC.0010  min=  0.00000000000000E+00
DEBUG_STATS_RL:                   GNm1TRC.0010  max=  0.00000000000000E+00
DEBUG_STATS_RL:                   GNm1TRC.0010 mean=  0.00000000000000E+00
DEBUG_STATS_RL:                   GNm1TRC.0010 S.D.=  0.00000000000000E+00
DEBUG_STATS_RL:                   PTRACER.0011  min= -1.20393069579656E-03
DEBUG_STATS_RL:                   PTRACER.0011  max=  1.91163896677053E-02
DEBUG_STATS_RL:                   PTRACER.0011 mean=  3.37935380243556E-05
DEBUG_STATS_RL:                   PTRACER.0011 S.D.=  4.26133198367494E-04
DEBUG_STATS_RL:                   GNm1TRC.0011  min=  0.00000000000000E+00
DEBUG_STATS_RL:                   GNm1TRC.0011  max=  0.00000000000000E+00
DEBUG_STATS_RL:                   GNm1TRC.0011 mean=  0.00000000000000E+00
DEBUG_STATS_RL:                   GNm1TRC.0011 S.D.=  0.00000000000000E+00
DEBUG_STATS_RL:                   PTRACER.0012  min= -1.26157742115842E-02
DEBUG_STATS_RL:                   PTRACER.0012  max=  1.46023984866596E-01
DEBUG_STATS_RL:                   PTRACER.0012 mean=  3.90251902551173E-04
DEBUG_STATS_RL:                   PTRACER.0012 S.D.=  3.98622719811368E-03
DEBUG_STATS_RL:                   GNm1TRC.0012  min=  0.00000000000000E+00
DEBUG_STATS_RL:                   GNm1TRC.0012  max=  0.00000000000000E+00
DEBUG_STATS_RL:                   GNm1TRC.0012 mean=  0.00000000000000E+00
DEBUG_STATS_RL:                   GNm1TRC.0012 S.D.=  0.00000000000000E+00
DEBUG_STATS_RL:                   PTRACER.0013  min= -2.01852387385347E-01
DEBUG_STATS_RL:                   PTRACER.0013  max=  2.33638375786554E+00
DEBUG_STATS_RL:                   PTRACER.0013 mean=  6.24403044084969E-03
DEBUG_STATS_RL:                   PTRACER.0013 S.D.=  6.37796351698183E-02
DEBUG_STATS_RL:                   GNm1TRC.0013  min=  0.00000000000000E+00
DEBUG_STATS_RL:                   GNm1TRC.0013  max=  0.00000000000000E+00
DEBUG_STATS_RL:                   GNm1TRC.0013 mean=  0.00000000000000E+00
DEBUG_STATS_RL:                   GNm1TRC.0013 S.D.=  0.00000000000000E+00
DEBUG_STATS_RL:                   PTRACER.0014  min= -1.26157738916229E-05
DEBUG_STATS_RL:                   PTRACER.0014  max=  1.46023993704859E-04
DEBUG_STATS_RL:                   PTRACER.0014 mean=  3.90251903930759E-07
DEBUG_STATS_RL:                   PTRACER.0014 S.D.=  3.98622723729297E-06
DEBUG_STATS_RL:                   GNm1TRC.0014  min=  0.00000000000000E+00
DEBUG_STATS_RL:                   GNm1TRC.0014  max=  0.00000000000000E+00
DEBUG_STATS_RL:                   GNm1TRC.0014 mean=  0.00000000000000E+00
DEBUG_STATS_RL:                   GNm1TRC.0014 S.D.=  0.00000000000000E+00
DEBUG_STATS_RL:                   PTRACER.0015  min= -3.72399250770117E-02
DEBUG_STATS_RL:                   PTRACER.0015  max=  9.24047152745182E-01
DEBUG_STATS_RL:                   PTRACER.0015 mean=  2.32876533363518E-03
DEBUG_STATS_RL:                   PTRACER.0015 S.D.=  2.30274345993912E-02
DEBUG_STATS_RL:                   GNm1TRC.0015  min=  0.00000000000000E+00
DEBUG_STATS_RL:                   GNm1TRC.0015  max=  0.00000000000000E+00
DEBUG_STATS_RL:                   GNm1TRC.0015 mean=  0.00000000000000E+00
DEBUG_STATS_RL:                   GNm1TRC.0015 S.D.=  0.00000000000000E+00
DEBUG_STATS_RL:                   PTRACER.0016  min= -4.93137724108362E-03
DEBUG_STATS_RL:                   PTRACER.0016  max=  1.35513283437072E-01
DEBUG_STATS_RL:                   PTRACER.0016 mean=  1.30061855441980E-03
DEBUG_STATS_RL:                   PTRACER.0016 S.D.=  3.01128246539577E-03
DEBUG_STATS_RL:                   GNm1TRC.0016  min=  0.00000000000000E+00
DEBUG_STATS_RL:                   GNm1TRC.0016  max=  0.00000000000000E+00
DEBUG_STATS_RL:                   GNm1TRC.0016 mean=  0.00000000000000E+00
DEBUG_STATS_RL:                   GNm1TRC.0016 S.D.=  0.00000000000000E+00
DEBUG_STATS_RL:                   PTRACER.0017  min= -7.89020050265394E-02
DEBUG_STATS_RL:                   PTRACER.0017  max=  2.16856633393984E+00
DEBUG_STATS_RL:                   PTRACER.0017 mean=  2.08414161793403E-02
DEBUG_STATS_RL:                   PTRACER.0017 S.D.=  4.82432063416486E-02
DEBUG_STATS_RL:                   GNm1TRC.0017  min=  0.00000000000000E+00
DEBUG_STATS_RL:                   GNm1TRC.0017  max=  0.00000000000000E+00
DEBUG_STATS_RL:                   GNm1TRC.0017 mean=  0.00000000000000E+00
DEBUG_STATS_RL:                   GNm1TRC.0017 S.D.=  0.00000000000000E+00
DEBUG_STATS_RL:                   PTRACER.0018  min= -4.93137522327836E-06
DEBUG_STATS_RL:                   PTRACER.0018  max=  1.35535391084483E-04
DEBUG_STATS_RL:                   PTRACER.0018 mean=  1.30258851041505E-06
DEBUG_STATS_RL:                   PTRACER.0018 S.D.=  3.01520037620896E-06
DEBUG_STATS_RL:                   GNm1TRC.0018  min=  0.00000000000000E+00
DEBUG_STATS_RL:                   GNm1TRC.0018  max=  0.00000000000000E+00
DEBUG_STATS_RL:                   GNm1TRC.0018 mean=  0.00000000000000E+00
DEBUG_STATS_RL:                   GNm1TRC.0018 S.D.=  0.00000000000000E+00
DEBUG_STATS_RL:                   PTRACER.0019  min= -2.89874871600049E-01
DEBUG_STATS_RL:                   PTRACER.0019  max=  1.96017781021734E+01
DEBUG_STATS_RL:                   PTRACER.0019 mean=  1.24661991894761E-01
DEBUG_STATS_RL:                   PTRACER.0019 S.D.=  3.18390746382727E-01
DEBUG_STATS_RL:                   GNm1TRC.0019  min=  0.00000000000000E+00
DEBUG_STATS_RL:                   GNm1TRC.0019  max=  0.00000000000000E+00
DEBUG_STATS_RL:                   GNm1TRC.0019 mean=  0.00000000000000E+00
DEBUG_STATS_RL:                   GNm1TRC.0019 S.D.=  0.00000000000000E+00
DEBUG_STATS_RL:                   PTRACER.0020  min= -2.87575995131078E-02
DEBUG_STATS_RL:                   PTRACER.0020  max=  3.26280933971706E-01
DEBUG_STATS_RL:                   PTRACER.0020 mean=  3.00738382436442E-03
DEBUG_STATS_RL:                   PTRACER.0020 S.D.=  1.51512135601916E-02
DEBUG_STATS_RL:                   GNm1TRC.0020  min=  0.00000000000000E+00
DEBUG_STATS_RL:                   GNm1TRC.0020  max=  0.00000000000000E+00
DEBUG_STATS_RL:                   GNm1TRC.0020 mean=  0.00000000000000E+00
DEBUG_STATS_RL:                   GNm1TRC.0020 S.D.=  0.00000000000000E+00
DEBUG_STATS_RL:                   PTRACER.0021  min= -1.24819993354416E-01
DEBUG_STATS_RL:                   PTRACER.0021  max=  8.52786858231831E-01
DEBUG_STATS_RL:                   PTRACER.0021 mean=  1.47772071765844E-02
DEBUG_STATS_RL:                   PTRACER.0021 S.D.=  5.64830414141752E-02
DEBUG_STATS_RL:                   GNm1TRC.0021  min=  0.00000000000000E+00
DEBUG_STATS_RL:                   GNm1TRC.0021  max=  0.00000000000000E+00
DEBUG_STATS_RL:                   GNm1TRC.0021 mean=  0.00000000000000E+00
DEBUG_STATS_RL:                   GNm1TRC.0021 S.D.=  0.00000000000000E+00
DEBUG_STATS_RL:                   PTRACER.0022  min= -5.07383560320872E-02
DEBUG_STATS_RL:                   PTRACER.0022  max=  1.73420568812057E-01
DEBUG_STATS_RL:                   PTRACER.0022 mean=  5.25763266456124E-04
DEBUG_STATS_RL:                   PTRACER.0022 S.D.=  5.66759579107133E-03
DEBUG_STATS_RL:                   GNm1TRC.0022  min=  0.00000000000000E+00
DEBUG_STATS_RL:                   GNm1TRC.0022  max=  0.00000000000000E+00
DEBUG_STATS_RL:                   GNm1TRC.0022 mean=  0.00000000000000E+00
DEBUG_STATS_RL:                   GNm1TRC.0022 S.D.=  0.00000000000000E+00
DEBUG_STATS_RL:                   PTRACER.0023  min= -2.98080649911356E-02
DEBUG_STATS_RL:                   PTRACER.0023  max=  1.03056442355132E-01
DEBUG_STATS_RL:                   PTRACER.0023 mean=  2.23859442253480E-04
DEBUG_STATS_RL:                   PTRACER.0023 S.D.=  2.25594703253038E-03
DEBUG_STATS_RL:                   GNm1TRC.0023  min=  0.00000000000000E+00
DEBUG_STATS_RL:                   GNm1TRC.0023  max=  0.00000000000000E+00
DEBUG_STATS_RL:                   GNm1TRC.0023 mean=  0.00000000000000E+00
DEBUG_STATS_RL:                   GNm1TRC.0023 S.D.=  0.00000000000000E+00
DEBUG_STATS_RL:                   PTRACER.0024  min= -2.45758894515771E-02
DEBUG_STATS_RL:                   PTRACER.0024  max=  1.41413664513637E-01
DEBUG_STATS_RL:                   PTRACER.0024 mean=  1.75196321904209E-04
DEBUG_STATS_RL:                   PTRACER.0024 S.D.=  1.76952876817635E-03
DEBUG_STATS_RL:                   GNm1TRC.0024  min=  0.00000000000000E+00
DEBUG_STATS_RL:                   GNm1TRC.0024  max=  0.00000000000000E+00
DEBUG_STATS_RL:                   GNm1TRC.0024 mean=  0.00000000000000E+00
DEBUG_STATS_RL:                   GNm1TRC.0024 S.D.=  0.00000000000000E+00
DEBUG_STATS_RL:                   PTRACER.0025  min= -7.37689134684364E-04
DEBUG_STATS_RL:                   PTRACER.0025  max=  2.20533108694591E-03
DEBUG_STATS_RL:                   PTRACER.0025 mean=  6.05819265825056E-07
DEBUG_STATS_RL:                   PTRACER.0025 S.D.=  3.25054208969658E-05
DEBUG_STATS_RL:                   GNm1TRC.0025  min=  0.00000000000000E+00
DEBUG_STATS_RL:                   GNm1TRC.0025  max=  0.00000000000000E+00
DEBUG_STATS_RL:                   GNm1TRC.0025 mean=  0.00000000000000E+00
DEBUG_STATS_RL:                   GNm1TRC.0025 S.D.=  0.00000000000000E+00
DEBUG_STATS_RL:                   PTRACER.0026  min= -2.02956703796673E-03
DEBUG_STATS_RL:                   PTRACER.0026  max=  2.64955248961171E-02
DEBUG_STATS_RL:                   PTRACER.0026 mean=  3.49303646447086E-04
DEBUG_STATS_RL:                   PTRACER.0026 S.D.=  1.69201073675426E-03
DEBUG_STATS_RL:                   GNm1TRC.0026  min=  0.00000000000000E+00
DEBUG_STATS_RL:                   GNm1TRC.0026  max=  0.00000000000000E+00
DEBUG_STATS_RL:                   GNm1TRC.0026 mean=  0.00000000000000E+00
DEBUG_STATS_RL:                   GNm1TRC.0026 S.D.=  0.00000000000000E+00
DEBUG_STATS_RL:                   PTRACER.0027  min= -3.04443705541467E+00
DEBUG_STATS_RL:                   PTRACER.0027  max=  6.32601448643320E+00
DEBUG_STATS_RL:                   PTRACER.0027 mean=  1.05057970697353E-02
DEBUG_STATS_RL:                   PTRACER.0027 S.D.=  1.47703445683983E-01
DEBUG_STATS_RL:                   GNm1TRC.0027  min=  0.00000000000000E+00
DEBUG_STATS_RL:                   GNm1TRC.0027  max=  0.00000000000000E+00
DEBUG_STATS_RL:                   GNm1TRC.0027 mean=  0.00000000000000E+00
DEBUG_STATS_RL:                   GNm1TRC.0027 S.D.=  0.00000000000000E+00
DEBUG_STATS_RL:                   PTRACER.0028  min= -1.78849861572888E+00
DEBUG_STATS_RL:                   PTRACER.0028  max=  3.37947688328463E+00
DEBUG_STATS_RL:                   PTRACER.0028 mean=  4.47481802135190E-03
DEBUG_STATS_RL:                   PTRACER.0028 S.D.=  5.99149518757074E-02
DEBUG_STATS_RL:                   GNm1TRC.0028  min=  0.00000000000000E+00
DEBUG_STATS_RL:                   GNm1TRC.0028  max=  0.00000000000000E+00
DEBUG_STATS_RL:                   GNm1TRC.0028 mean=  0.00000000000000E+00
DEBUG_STATS_RL:                   GNm1TRC.0028 S.D.=  0.00000000000000E+00
DEBUG_STATS_RL:                   PTRACER.0029  min= -5.89821347015416E-01
DEBUG_STATS_RL:                   PTRACER.0029  max=  9.00320217838213E-01
DEBUG_STATS_RL:                   PTRACER.0029 mean=  9.60981641989715E-04
DEBUG_STATS_RL:                   PTRACER.0029 S.D.=  1.25622294745563E-02
DEBUG_STATS_RL:                   GNm1TRC.0029  min=  0.00000000000000E+00
DEBUG_STATS_RL:                   GNm1TRC.0029  max=  0.00000000000000E+00
DEBUG_STATS_RL:                   GNm1TRC.0029 mean=  0.00000000000000E+00
DEBUG_STATS_RL:                   GNm1TRC.0029 S.D.=  0.00000000000000E+00
DEBUG_STATS_RL:                   PTRACER.0030  min= -1.77164599288303E-02
DEBUG_STATS_RL:                   PTRACER.0030  max=  7.08821892694802E-03
DEBUG_STATS_RL:                   PTRACER.0030 mean= -1.41695733040760E-06
DEBUG_STATS_RL:                   PTRACER.0030 S.D.=  2.04135064948305E-04
DEBUG_STATS_RL:                   GNm1TRC.0030  min=  0.00000000000000E+00
DEBUG_STATS_RL:                   GNm1TRC.0030  max=  0.00000000000000E+00
DEBUG_STATS_RL:                   GNm1TRC.0030 mean=  0.00000000000000E+00
DEBUG_STATS_RL:                   GNm1TRC.0030 S.D.=  0.00000000000000E+00
DEBUG_STATS_RL:                   PTRACER.0031  min= -4.87052011792951E-02
DEBUG_STATS_RL:                   PTRACER.0031  max=  3.84985239208900E-01
DEBUG_STATS_RL:                   PTRACER.0031 mean=  3.40495274559586E-03
DEBUG_STATS_RL:                   PTRACER.0031 S.D.=  1.85149541145332E-02
DEBUG_STATS_RL:                   GNm1TRC.0031  min=  0.00000000000000E+00
DEBUG_STATS_RL:                   GNm1TRC.0031  max=  0.00000000000000E+00
DEBUG_STATS_RL:                   GNm1TRC.0031 mean=  0.00000000000000E+00
DEBUG_STATS_RL:                   GNm1TRC.0031 S.D.=  0.00000000000000E+00
DEBUG_STATS_RL:                   PTRACER.0032  min=  1.57256975068751E+03
DEBUG_STATS_RL:                   PTRACER.0032  max=  2.50728685669867E+03
DEBUG_STATS_RL:                   PTRACER.0032 mean=  2.29724776791426E+03
DEBUG_STATS_RL:                   PTRACER.0032 S.D.=  9.84086869855439E+01
DEBUG_STATS_RL:                   GNm1TRC.0032  min=  0.00000000000000E+00
DEBUG_STATS_RL:                   GNm1TRC.0032  max=  0.00000000000000E+00
DEBUG_STATS_RL:                   GNm1TRC.0032 mean=  0.00000000000000E+00
DEBUG_STATS_RL:                   GNm1TRC.0032 S.D.=  0.00000000000000E+00
DEBUG_STATS_RL:                   PTRACER.0033  min= -4.48024194067987E+00
DEBUG_STATS_RL:                   PTRACER.0033  max=  1.00738303186232E+02
DEBUG_STATS_RL:                   PTRACER.0033 mean=  2.68303817973897E+00
DEBUG_STATS_RL:                   PTRACER.0033 S.D.=  8.23837877991046E+00
DEBUG_STATS_RL:                   GNm1TRC.0033  min=  0.00000000000000E+00
DEBUG_STATS_RL:                   GNm1TRC.0033  max=  0.00000000000000E+00
DEBUG_STATS_RL:                   GNm1TRC.0033 mean=  0.00000000000000E+00
DEBUG_STATS_RL:                   GNm1TRC.0033 S.D.=  0.00000000000000E+00
DEBUG_STATS_RL:                   PTRACER.0034  min= -6.20381975088925E-01
DEBUG_STATS_RL:                   PTRACER.0034  max=  2.61858084852046E+01
DEBUG_STATS_RL:                   PTRACER.0034 mean=  2.62465248739019E-01
DEBUG_STATS_RL:                   PTRACER.0034 S.D.=  5.19769017922975E-01
DEBUG_STATS_RL:                   GNm1TRC.0034  min=  0.00000000000000E+00
DEBUG_STATS_RL:                   GNm1TRC.0034  max=  0.00000000000000E+00
DEBUG_STATS_RL:                   GNm1TRC.0034 mean=  0.00000000000000E+00
DEBUG_STATS_RL:                   GNm1TRC.0034 S.D.=  0.00000000000000E+00
DEBUG_STATS_RL:                   PTRACER.0035  min= -3.15917765211830E-02
DEBUG_STATS_RL:                   PTRACER.0035  max=  3.79872349877219E+00
DEBUG_STATS_RL:                   PTRACER.0035 mean=  2.48054516573275E-02
DEBUG_STATS_RL:                   PTRACER.0035 S.D.=  6.34930745471582E-02
DEBUG_STATS_RL:                   GNm1TRC.0035  min=  0.00000000000000E+00
DEBUG_STATS_RL:                   GNm1TRC.0035  max=  0.00000000000000E+00
DEBUG_STATS_RL:                   GNm1TRC.0035 mean=  0.00000000000000E+00
DEBUG_STATS_RL:                   GNm1TRC.0035 S.D.=  0.00000000000000E+00
DEBUG_STATS_RL:                   PTRACER.0036  min=  1.64152883147380E+03
DEBUG_STATS_RL:                   PTRACER.0036  max=  2.72042232923826E+03
DEBUG_STATS_RL:                   PTRACER.0036 mean=  2.42788229759360E+03
DEBUG_STATS_RL:                   PTRACER.0036 S.D.=  6.40251067481815E+01
DEBUG_STATS_RL:                   GNm1TRC.0036  min=  0.00000000000000E+00
DEBUG_STATS_RL:                   GNm1TRC.0036  max=  0.00000000000000E+00
DEBUG_STATS_RL:                   GNm1TRC.0036 mean=  0.00000000000000E+00
DEBUG_STATS_RL:                   GNm1TRC.0036 S.D.=  0.00000000000000E+00
DEBUG_STATS_RL:                   PTRACER.0037  min= -5.33592563726716E+01
DEBUG_STATS_RL:                   PTRACER.0037  max=  4.64707850942245E+02
DEBUG_STATS_RL:                   PTRACER.0037 mean=  1.94224745620827E+02
DEBUG_STATS_RL:                   PTRACER.0037 S.D.=  6.54284428637726E+01
DEBUG_STATS_RL:                   GNm1TRC.0037  min=  0.00000000000000E+00
DEBUG_STATS_RL:                   GNm1TRC.0037  max=  0.00000000000000E+00
DEBUG_STATS_RL:                   GNm1TRC.0037 mean=  0.00000000000000E+00
DEBUG_STATS_RL:                   GNm1TRC.0037 S.D.=  0.00000000000000E+00
DEBUG_STATS_RL:                   PTRACER.0038  min= -4.89885756798768E-01
DEBUG_STATS_RL:                   PTRACER.0038  max=  6.60668338903780E+00
DEBUG_STATS_RL:                   PTRACER.0038 mean=  2.32384320192976E-02
DEBUG_STATS_RL:                   PTRACER.0038 S.D.=  2.10316155467230E-01
DEBUG_STATS_RL:                   GNm1TRC.0038  min=  0.00000000000000E+00
DEBUG_STATS_RL:                   GNm1TRC.0038  max=  0.00000000000000E+00
DEBUG_STATS_RL:                   GNm1TRC.0038 mean=  0.00000000000000E+00
DEBUG_STATS_RL:                   GNm1TRC.0038 S.D.=  0.00000000000000E+00
DEBUG_STATS_RL:                   PTRACER.0039  min= -1.51389283836676E+00
DEBUG_STATS_RL:                   PTRACER.0039  max=  1.75228785411612E+01
DEBUG_STATS_RL:                   PTRACER.0039 mean=  4.68302283636455E-02
DEBUG_STATS_RL:                   PTRACER.0039 S.D.=  4.78347265236299E-01
DEBUG_STATS_RL:                   GNm1TRC.0039  min=  0.00000000000000E+00
DEBUG_STATS_RL:                   GNm1TRC.0039  max=  0.00000000000000E+00
DEBUG_STATS_RL:                   GNm1TRC.0039 mean=  0.00000000000000E+00
DEBUG_STATS_RL:                   GNm1TRC.0039 S.D.=  0.00000000000000E+00
DEBUG_STATS_RL:                   PTRACER.0040  min=  2.14450251885026E-20
DEBUG_STATS_RL:                   PTRACER.0040  max=  1.68412743416039E-05
DEBUG_STATS_RL:                   PTRACER.0040 mean=  1.27264990029186E-07
DEBUG_STATS_RL:                   PTRACER.0040 S.D.=  2.98694004913029E-07
DEBUG_STATS_RL:                   GNm1TRC.0040  min=  0.00000000000000E+00
DEBUG_STATS_RL:                   GNm1TRC.0040  max=  0.00000000000000E+00
DEBUG_STATS_RL:                   GNm1TRC.0040 mean=  0.00000000000000E+00
DEBUG_STATS_RL:                   GNm1TRC.0040 S.D.=  0.00000000000000E+00
DEBUG_STATS_RL:                EtaN (DYNAMICS)  min= -1.44613305009662E+00
DEBUG_STATS_RL:                EtaN (DYNAMICS)  max=  9.47169454189577E-01
DEBUG_STATS_RL:                EtaN (DYNAMICS) mean= -1.58157457713318E-01
DEBUG_STATS_RL:                EtaN (DYNAMICS) S.D.=  6.35696126786711E-01
DEBUG_STATS_RL:                Uvel (DYNAMICS)  min= -2.36553166108774E-01
DEBUG_STATS_RL:                Uvel (DYNAMICS)  max=  1.90345751409772E-01
DEBUG_STATS_RL:                Uvel (DYNAMICS) mean=  4.31285872432797E-03
DEBUG_STATS_RL:                Uvel (DYNAMICS) S.D.=  2.22421182195457E-02
DEBUG_STATS_RL:                Vvel (DYNAMICS)  min= -2.16392260767266E-01
DEBUG_STATS_RL:                Vvel (DYNAMICS)  max=  1.44792001995686E-01
DEBUG_STATS_RL:                Vvel (DYNAMICS) mean= -7.12183802623490E-04
DEBUG_STATS_RL:                Vvel (DYNAMICS) S.D.=  1.31728482049378E-02
DEBUG_STATS_RL:                Wvel (DYNAMICS)  min= -9.14480781854128E-05
DEBUG_STATS_RL:                Wvel (DYNAMICS)  max=  7.13101665474821E-05
DEBUG_STATS_RL:                Wvel (DYNAMICS) mean=  1.98484006264833E-07
DEBUG_STATS_RL:                Wvel (DYNAMICS) S.D.=  6.53452633483086E-06
DEBUG_STATS_RL:               Theta (DYNAMICS)  min= -3.46746471139250E+00
DEBUG_STATS_RL:               Theta (DYNAMICS)  max=  3.02457013796577E+01
DEBUG_STATS_RL:               Theta (DYNAMICS) mean=  6.18032041597769E+00
DEBUG_STATS_RL:               Theta (DYNAMICS) S.D.=  6.76152656656041E+00
DEBUG_STATS_RL:                Salt (DYNAMICS)  min=  3.14845910482269E+01
DEBUG_STATS_RL:                Salt (DYNAMICS)  max=  3.75568017079784E+01
DEBUG_STATS_RL:                Salt (DYNAMICS) mean=  3.46619911936054E+01
DEBUG_STATS_RL:                Salt (DYNAMICS) S.D.=  4.90701429674948E-01
DEBUG_STATS_RL:                  Gu (DYNAMICS)  min= -2.36079794482199E-01
DEBUG_STATS_RL:                  Gu (DYNAMICS)  max=  1.90559060530488E-01
DEBUG_STATS_RL:                  Gu (DYNAMICS) mean=  4.27416076012852E-03
DEBUG_STATS_RL:                  Gu (DYNAMICS) S.D.=  2.23279488567677E-02
DEBUG_STATS_RL:                  Gv (DYNAMICS)  min= -2.16317340609970E-01
DEBUG_STATS_RL:                  Gv (DYNAMICS)  max=  1.42304006838196E-01
DEBUG_STATS_RL:                  Gv (DYNAMICS) mean= -1.37715571189914E-04
DEBUG_STATS_RL:                  Gv (DYNAMICS) S.D.=  1.30905471942551E-02
DEBUG_STATS_RL:    cg2d_b (SOLVE_FOR_PRESSURE)  min= -1.14206876937394E+05
DEBUG_STATS_RL:    cg2d_b (SOLVE_FOR_PRESSURE)  max=  9.28392670649785E+04
DEBUG_STATS_RL:    cg2d_b (SOLVE_FOR_PRESSURE) mean= -7.56229260362130E-06
DEBUG_STATS_RL:    cg2d_b (SOLVE_FOR_PRESSURE) S.D.=  4.79292447626748E+04
 cg2d: Sum(rhs),rhsMax =  -2.94462576988508E-07  8.03705305292051E+00
(PID.TID 0000.0001)  cg2d: iter=     1 ; resid.=  1.21249833671790E-01
(PID.TID 0000.0001)  cg2d: iter=     2 ; resid.=  3.36675546519622E-02
(PID.TID 0000.0001)  cg2d: iter=     3 ; resid.=  1.01148725232745E-02
(PID.TID 0000.0001)  cg2d: iter=     4 ; resid.=  3.09180965774963E-03
(PID.TID 0000.0001)  cg2d: iter=     5 ; resid.=  1.00053101654165E-03
(PID.TID 0000.0001)  cg2d: iter=     6 ; resid.=  3.17327524260083E-04
(PID.TID 0000.0001)  cg2d: iter=     7 ; resid.=  1.02667489943792E-04
(PID.TID 0000.0001)  cg2d: iter=     8 ; resid.=  4.08313317296939E-05
(PID.TID 0000.0001)  cg2d: iter=     9 ; resid.=  1.44944253637932E-05
(PID.TID 0000.0001)  cg2d: iter=    10 ; resid.=  4.75157697996286E-06
(PID.TID 0000.0001)  cg2d: iter=    11 ; resid.=  1.66924738575657E-06
(PID.TID 0000.0001)  cg2d: iter=    12 ; resid.=  5.22933016168009E-07
(PID.TID 0000.0001)  cg2d: iter=    13 ; resid.=  1.59278357310709E-07
(PID.TID 0000.0001)  cg2d: iter=    14 ; resid.=  4.73718293868950E-08
(PID.TID 0000.0001)  cg2d: iter=    15 ; resid.=  1.33125959378161E-08
(PID.TID 0000.0001)  cg2d: iter=    16 ; resid.=  3.72927121668511E-09
(PID.TID 0000.0001)  cg2d: iter=    17 ; resid.=  1.10233656191768E-09
(PID.TID 0000.0001)  cg2d: iter=    18 ; resid.=  3.40505140173308E-10
(PID.TID 0000.0001)  cg2d: iter=    19 ; resid.=  1.07557531312988E-10
(PID.TID 0000.0001)  cg2d: iter=    20 ; resid.=  4.10597073600801E-11
(PID.TID 0000.0001)  cg2d: iter=    21 ; resid.=  1.55760185990735E-11
(PID.TID 0000.0001)  cg2d: iter=    22 ; resid.=  4.73602854936434E-12
(PID.TID 0000.0001)  cg2d: iter=    23 ; resid.=  1.47358390657095E-12
(PID.TID 0000.0001)  cg2d: iter=    24 ; resid.=  5.02966674350372E-13
(PID.TID 0000.0001)  cg2d: iter=    25 ; resid.=  1.60717282371230E-13
(PID.TID 0000.0001)  cg2d: iter=    26 ; resid.=  5.26981615462454E-14
DEBUG_STATS_RL:    cg2d_x (SOLVE_FOR_PRESSURE)  min= -1.41557049257281E+01
DEBUG_STATS_RL:    cg2d_x (SOLVE_FOR_PRESSURE)  max=  9.15987815093016E+00
DEBUG_STATS_RL:    cg2d_x (SOLVE_FOR_PRESSURE) mean= -1.54632083526304E+00
DEBUG_STATS_RL:    cg2d_x (SOLVE_FOR_PRESSURE) S.D.=  6.20146494746686E+00
(PID.TID 0000.0001)      cg2d_init_res =   4.87539200746896E-01
(PID.TID 0000.0001)      cg2d_iters(min,last) =      -1      26
(PID.TID 0000.0001)      cg2d_last_res =   5.26981615462454E-14
(PID.TID 0000.0001) // =======================================================
(PID.TID 0000.0001) // Begin MONITOR dynamic field statistics
(PID.TID 0000.0001) // =======================================================
(PID.TID 0000.0001) %MON time_tsnumber                =                     3
(PID.TID 0000.0001) %MON time_secondsf                =   2.7000000000000E+03
(PID.TID 0000.0001) %MON dynstat_eta_max              =   9.3372865962591E-01
(PID.TID 0000.0001) %MON dynstat_eta_min              =  -1.4429872503291E+00
(PID.TID 0000.0001) %MON dynstat_eta_mean             =   8.2462491646489E-11
(PID.TID 0000.0001) %MON dynstat_eta_sd               =   5.5833306352467E-01
(PID.TID 0000.0001) %MON dynstat_eta_del2             =   9.1165356011629E-04
(PID.TID 0000.0001) %MON dynstat_uvel_max             =   1.9052806000339E-01
(PID.TID 0000.0001) %MON dynstat_uvel_min             =  -2.3599688571531E-01
(PID.TID 0000.0001) %MON dynstat_uvel_mean            =   1.8427326218403E-03
(PID.TID 0000.0001) %MON dynstat_uvel_sd              =   1.3021288006575E-02
(PID.TID 0000.0001) %MON dynstat_uvel_del2            =   4.9641238563423E-05
(PID.TID 0000.0001) %MON dynstat_vvel_max             =   1.4202266761863E-01
(PID.TID 0000.0001) %MON dynstat_vvel_min             =  -2.1583910971896E-01
(PID.TID 0000.0001) %MON dynstat_vvel_mean            =  -7.7348001889802E-04
(PID.TID 0000.0001) %MON dynstat_vvel_sd              =   7.9157395094487E-03
(PID.TID 0000.0001) %MON dynstat_vvel_del2            =   4.0439082222500E-05
(PID.TID 0000.0001) %MON dynstat_wvel_max             =   1.3257028809156E-04
(PID.TID 0000.0001) %MON dynstat_wvel_min             =  -9.4358570756708E-05
(PID.TID 0000.0001) %MON dynstat_wvel_mean            =  -2.9169766051606E-17
(PID.TID 0000.0001) %MON dynstat_wvel_sd              =   5.9574006324786E-06
(PID.TID 0000.0001) %MON dynstat_wvel_del2            =   5.5433708286255E-08
(PID.TID 0000.0001) %MON dynstat_theta_max            =   3.0245701379658E+01
(PID.TID 0000.0001) %MON dynstat_theta_min            =  -3.4674647113925E+00
(PID.TID 0000.0001) %MON dynstat_theta_mean           =   3.8021342265591E+00
(PID.TID 0000.0001) %MON dynstat_theta_sd             =   4.5122997062932E+00
(PID.TID 0000.0001) %MON dynstat_theta_del2           =   2.5987775274666E-03
(PID.TID 0000.0001) %MON dynstat_salt_max             =   3.7556801707978E+01
(PID.TID 0000.0001) %MON dynstat_salt_min             =   3.1484591048227E+01
(PID.TID 0000.0001) %MON dynstat_salt_mean            =   3.4614647874002E+01
(PID.TID 0000.0001) %MON dynstat_salt_sd              =   3.1408561977647E-01
(PID.TID 0000.0001) %MON dynstat_salt_del2            =   4.0542243558740E-04
(PID.TID 0000.0001) %MON forcing_qnet_max             =   3.5044377352319E+02
(PID.TID 0000.0001) %MON forcing_qnet_min             =  -3.3217041563321E+02
(PID.TID 0000.0001) %MON forcing_qnet_mean            =  -8.2630919292943E+01
(PID.TID 0000.0001) %MON forcing_qnet_sd              =   9.8285680487415E+01
(PID.TID 0000.0001) %MON forcing_qnet_del2            =   5.8990170176946E-01
(PID.TID 0000.0001) %MON forcing_qsw_max              =   3.3126192252638E+01
(PID.TID 0000.0001) %MON forcing_qsw_min              =  -3.5303553752756E+02
(PID.TID 0000.0001) %MON forcing_qsw_mean             =  -1.9660943182568E+02
(PID.TID 0000.0001) %MON forcing_qsw_sd               =   7.3857883243519E+01
(PID.TID 0000.0001) %MON forcing_qsw_del2             =   3.3346738645091E-01
(PID.TID 0000.0001) %MON forcing_empmr_max            =   8.2889848877800E-04
(PID.TID 0000.0001) %MON forcing_empmr_min            =  -6.3521738092040E-04
(PID.TID 0000.0001) %MON forcing_empmr_mean           =  -1.4927360970614E-05
(PID.TID 0000.0001) %MON forcing_empmr_sd             =   4.3487572565834E-05
(PID.TID 0000.0001) %MON forcing_empmr_del2           =   8.1174238397205E-07
(PID.TID 0000.0001) %MON forcing_fu_max               =   1.3087541998464E-01
(PID.TID 0000.0001) %MON forcing_fu_min               =  -1.1232948535022E-01
(PID.TID 0000.0001) %MON forcing_fu_mean              =  -4.3562990940895E-03
(PID.TID 0000.0001) %MON forcing_fu_sd                =   4.0501881861280E-02
(PID.TID 0000.0001) %MON forcing_fu_del2              =   1.3883872037960E-04
(PID.TID 0000.0001) %MON forcing_fv_max               =   9.4388588183075E-02
(PID.TID 0000.0001) %MON forcing_fv_min               =  -9.3617723646580E-02
(PID.TID 0000.0001) %MON forcing_fv_mean              =  -3.4025723737638E-03
(PID.TID 0000.0001) %MON forcing_fv_sd                =   1.7657572148988E-02
(PID.TID 0000.0001) %MON forcing_fv_del2              =   8.3016131251711E-05
(PID.TID 0000.0001) %MON trAdv_CFL_u_max              =   7.1156526802777E-04
(PID.TID 0000.0001) %MON trAdv_CFL_v_max              =   6.2233737716033E-04
(PID.TID 0000.0001) %MON trAdv_CFL_w_max              =   1.4679173824467E-03
(PID.TID 0000.0001) %MON advcfl_uvel_max              =   7.2404055816602E-04
(PID.TID 0000.0001) %MON advcfl_vvel_max              =   6.2124559074449E-04
(PID.TID 0000.0001) %MON advcfl_wvel_max              =   3.1938212879582E-03
(PID.TID 0000.0001) %MON advcfl_W_hf_max              =   1.3777555609873E-03
(PID.TID 0000.0001) %MON pe_b_mean                    =   4.0178191001824E-04
(PID.TID 0000.0001) %MON ke_max                       =   3.1054601740830E-02
(PID.TID 0000.0001) %MON ke_mean                      =   1.0932758034905E-04
(PID.TID 0000.0001) %MON ke_vol                       =   1.2571476858570E+18
(PID.TID 0000.0001) %MON vort_r_min                   =  -8.9503245445237E-07
(PID.TID 0000.0001) %MON vort_r_max                   =   9.9650931293329E-07
(PID.TID 0000.0001) %MON vort_a_mean                  =  -2.4002453570025E-05
(PID.TID 0000.0001) %MON vort_a_sd                    =   7.3138174877351E-05
(PID.TID 0000.0001) %MON vort_p_mean                  =  -2.8585773838203E-05
(PID.TID 0000.0001) %MON vort_p_sd                    =   1.1453385175375E-04
(PID.TID 0000.0001) %MON surfExpan_theta_mean         =  -1.7542248721604E-05
(PID.TID 0000.0001) %MON surfExpan_salt_mean          =  -1.5211617130066E-06
(PID.TID 0000.0001) // =======================================================
(PID.TID 0000.0001) // End MONITOR dynamic field statistics
(PID.TID 0000.0001) // =======================================================
(PID.TID 0000.0001) // =======================================================
(PID.TID 0000.0001) // Begin MONITOR SEAICE statistics
(PID.TID 0000.0001) // =======================================================
(PID.TID 0000.0001) %MON seaice_tsnumber              =                     3
(PID.TID 0000.0001) %MON seaice_time_sec              =   2.7000000000000E+03
(PID.TID 0000.0001) %MON seaice_uice_max              =   4.0000000000000E-01
(PID.TID 0000.0001) %MON seaice_uice_min              =  -4.0000000000000E-01
(PID.TID 0000.0001) %MON seaice_uice_mean             =  -2.1026032823743E-02
(PID.TID 0000.0001) %MON seaice_uice_sd               =   2.1529662277719E-01
(PID.TID 0000.0001) %MON seaice_uice_del2             =   7.3014042090768E-04
(PID.TID 0000.0001) %MON seaice_vice_max              =   3.9833858028488E-01
(PID.TID 0000.0001) %MON seaice_vice_min              =  -3.2496199122950E-01
(PID.TID 0000.0001) %MON seaice_vice_mean             =  -1.3611471039527E-02
(PID.TID 0000.0001) %MON seaice_vice_sd               =   8.1404421623608E-02
(PID.TID 0000.0001) %MON seaice_vice_del2             =   4.3435929072362E-04
(PID.TID 0000.0001) %MON seaice_area_max              =   9.5000000000000E-01
(PID.TID 0000.0001) %MON seaice_area_min              =   0.0000000000000E+00
(PID.TID 0000.0001) %MON seaice_area_mean             =   4.7096011862411E-03
(PID.TID 0000.0001) %MON seaice_area_sd               =   6.6645316432327E-02
(PID.TID 0000.0001) %MON seaice_area_del2             =   1.9414648763232E-03
(PID.TID 0000.0001) %MON seaice_heff_max              =   1.0006566350799E+00
(PID.TID 0000.0001) %MON seaice_heff_min              =   0.0000000000000E+00
(PID.TID 0000.0001) %MON seaice_heff_mean             =   4.9501678838992E-03
(PID.TID 0000.0001) %MON seaice_heff_sd               =   7.0148819843935E-02
(PID.TID 0000.0001) %MON seaice_heff_del2             =   2.0464837333996E-03
(PID.TID 0000.0001) %MON seaice_hsnow_max             =   2.0026907381487E-01
(PID.TID 0000.0001) %MON seaice_hsnow_min             =   0.0000000000000E+00
(PID.TID 0000.0001) %MON seaice_hsnow_mean            =   9.9005410620085E-04
(PID.TID 0000.0001) %MON seaice_hsnow_sd              =   1.4037244161825E-02
(PID.TID 0000.0001) %MON seaice_hsnow_del2            =   4.0972623166046E-04
(PID.TID 0000.0001) // =======================================================
(PID.TID 0000.0001) // End MONITOR SEAICE statistics
(PID.TID 0000.0001) // =======================================================
(PID.TID 0000.0001) // =======================================================
(PID.TID 0000.0001) // Begin MONITOR ptracer field statistics
(PID.TID 0000.0001) // =======================================================
(PID.TID 0000.0001) %MON trcstat_ptracer01_max        =   3.5229136889051E+00
(PID.TID 0000.0001) %MON trcstat_ptracer01_min        =  -2.8349391248115E-01
(PID.TID 0000.0001) %MON trcstat_ptracer01_mean       =   2.1995420964328E+00
(PID.TID 0000.0001) %MON trcstat_ptracer01_sd         =   5.6155817483989E-01
(PID.TID 0000.0001) %MON trcstat_ptracer01_del2       =   7.9797034014844E-04
(PID.TID 0000.0001) %MON trcstat_ptracer02_max        =   4.8722680129993E+01
(PID.TID 0000.0001) %MON trcstat_ptracer02_min        =  -4.5778578522857E+00
(PID.TID 0000.0001) %MON trcstat_ptracer02_mean       =   3.1443333070621E+01
(PID.TID 0000.0001) %MON trcstat_ptracer02_sd         =   7.7584872729344E+00
(PID.TID 0000.0001) %MON trcstat_ptracer02_del2       =   1.1990108590983E-02
(PID.TID 0000.0001) %MON trcstat_ptracer03_max        =   1.0524429454954E-03
(PID.TID 0000.0001) %MON trcstat_ptracer03_min        =  -1.3374986132622E-04
(PID.TID 0000.0001) %MON trcstat_ptracer03_mean       =   5.7796035097639E-04
(PID.TID 0000.0001) %MON trcstat_ptracer03_sd         =   1.2480652271215E-04
(PID.TID 0000.0001) %MON trcstat_ptracer03_del2       =   5.1312746252269E-07
(PID.TID 0000.0001) %MON trcstat_ptracer04_max        =   1.9892430544823E+02
(PID.TID 0000.0001) %MON trcstat_ptracer04_min        =  -2.5399524820501E+01
(PID.TID 0000.0001) %MON trcstat_ptracer04_mean       =   9.1188433586990E+01
(PID.TID 0000.0001) %MON trcstat_ptracer04_sd         =   4.6073545830790E+01
(PID.TID 0000.0001) %MON trcstat_ptracer04_del2       =   3.6179773918032E-02
(PID.TID 0000.0001) %MON trcstat_ptracer05_max        =   5.6672977733869E-01
(PID.TID 0000.0001) %MON trcstat_ptracer05_min        =  -1.8220523613062E-02
(PID.TID 0000.0001) %MON trcstat_ptracer05_mean       =   2.0585759002586E-03
(PID.TID 0000.0001) %MON trcstat_ptracer05_sd         =   1.7202578115908E-02
(PID.TID 0000.0001) %MON trcstat_ptracer05_del2       =   1.1493719919164E-04
(PID.TID 0000.0001) %MON trcstat_ptracer06_max        =   9.0676764374191E+00
(PID.TID 0000.0001) %MON trcstat_ptracer06_min        =  -2.9152837780899E-01
(PID.TID 0000.0001) %MON trcstat_ptracer06_mean       =   3.2937214404136E-02
(PID.TID 0000.0001) %MON trcstat_ptracer06_sd         =   2.7524124985453E-01
(PID.TID 0000.0001) %MON trcstat_ptracer06_del2       =   1.8389951870663E-03
(PID.TID 0000.0001) %MON trcstat_ptracer07_max        =   5.6672977035943E-04
(PID.TID 0000.0001) %MON trcstat_ptracer07_min        =  -1.8220523511036E-05
(PID.TID 0000.0001) %MON trcstat_ptracer07_mean       =   2.0585758988327E-06
(PID.TID 0000.0001) %MON trcstat_ptracer07_sd         =   1.7202578088293E-05
(PID.TID 0000.0001) %MON trcstat_ptracer07_del2       =   1.1493719926517E-07
(PID.TID 0000.0001) %MON trcstat_ptracer08_max        =   5.5095589095595E-02
(PID.TID 0000.0001) %MON trcstat_ptracer08_min        =  -4.0823813687396E-03
(PID.TID 0000.0001) %MON trcstat_ptracer08_mean       =   3.9186884057274E-05
(PID.TID 0000.0001) %MON trcstat_ptracer08_sd         =   7.8357663708115E-04
(PID.TID 0000.0001) %MON trcstat_ptracer08_del2       =   7.9069018578834E-06
(PID.TID 0000.0001) %MON trcstat_ptracer09_max        =   8.8152942552952E-01
(PID.TID 0000.0001) %MON trcstat_ptracer09_min        =  -6.5318101899834E-02
(PID.TID 0000.0001) %MON trcstat_ptracer09_mean       =   6.2699014491939E-04
(PID.TID 0000.0001) %MON trcstat_ptracer09_sd         =   1.2537226193300E-02
(PID.TID 0000.0001) %MON trcstat_ptracer09_del2       =   1.2651042972613E-04
(PID.TID 0000.0001) %MON trcstat_ptracer10_max        =   5.5095589299046E-05
(PID.TID 0000.0001) %MON trcstat_ptracer10_min        =  -4.0823814160294E-06
(PID.TID 0000.0001) %MON trcstat_ptracer10_mean       =   3.9186884117125E-08
(PID.TID 0000.0001) %MON trcstat_ptracer10_sd         =   7.8357664027164E-07
(PID.TID 0000.0001) %MON trcstat_ptracer10_del2       =   7.9069020179005E-09
(PID.TID 0000.0001) %MON trcstat_ptracer11_max        =   1.9115164843978E-02
(PID.TID 0000.0001) %MON trcstat_ptracer11_min        =  -1.2039306957966E-03
(PID.TID 0000.0001) %MON trcstat_ptracer11_mean       =   6.9562250269627E-06
(PID.TID 0000.0001) %MON trcstat_ptracer11_sd         =   1.9387231011668E-04
(PID.TID 0000.0001) %MON trcstat_ptracer11_del2       =   2.3310655484265E-06
(PID.TID 0000.0001) %MON trcstat_ptracer12_max        =   1.4608605591989E-01
(PID.TID 0000.0001) %MON trcstat_ptracer12_min        =  -1.2615774211584E-02
(PID.TID 0000.0001) %MON trcstat_ptracer12_mean       =   7.0243200174257E-05
(PID.TID 0000.0001) %MON trcstat_ptracer12_sd         =   1.6982953201084E-03
(PID.TID 0000.0001) %MON trcstat_ptracer12_del2       =   2.1123716598031E-05
(PID.TID 0000.0001) %MON trcstat_ptracer13_max        =   2.3373768947182E+00
(PID.TID 0000.0001) %MON trcstat_ptracer13_min        =  -2.0185238738535E-01
(PID.TID 0000.0001) %MON trcstat_ptracer13_mean       =   1.1238912027928E-03
(PID.TID 0000.0001) %MON trcstat_ptracer13_sd         =   2.7172725121734E-02
(PID.TID 0000.0001) %MON trcstat_ptracer13_del2       =   3.3797946556850E-04
(PID.TID 0000.0001) %MON trcstat_ptracer14_max        =   1.4608606475508E-04
(PID.TID 0000.0001) %MON trcstat_ptracer14_min        =  -1.2615773891623E-05
(PID.TID 0000.0001) %MON trcstat_ptracer14_mean       =   7.0243200432831E-08
(PID.TID 0000.0001) %MON trcstat_ptracer14_sd         =   1.6982953380527E-06
(PID.TID 0000.0001) %MON trcstat_ptracer14_del2       =   2.1123716794854E-08
(PID.TID 0000.0001) %MON trcstat_ptracer15_max        =   9.2554923255043E-01
(PID.TID 0000.0001) %MON trcstat_ptracer15_min        =  -3.7239925077012E-02
(PID.TID 0000.0001) %MON trcstat_ptracer15_mean       =   4.1792606488981E-04
(PID.TID 0000.0001) %MON trcstat_ptracer15_sd         =   9.9481620798494E-03
(PID.TID 0000.0001) %MON trcstat_ptracer15_del2       =   1.4009680894585E-04
(PID.TID 0000.0001) %MON trcstat_ptracer16_max        =   1.3529321609279E-01
(PID.TID 0000.0001) %MON trcstat_ptracer16_min        =  -4.9313770868401E-03
(PID.TID 0000.0001) %MON trcstat_ptracer16_mean       =   6.2309141993520E-04
(PID.TID 0000.0001) %MON trcstat_ptracer16_sd         =   1.6613842946404E-03
(PID.TID 0000.0001) %MON trcstat_ptracer16_del2       =   1.5213991718100E-05
(PID.TID 0000.0001) %MON trcstat_ptracer17_max        =   2.1651763154264E+00
(PID.TID 0000.0001) %MON trcstat_ptracer17_min        =  -7.8902002558644E-02
(PID.TID 0000.0001) %MON trcstat_ptracer17_mean       =   9.9898863005493E-03
(PID.TID 0000.0001) %MON trcstat_ptracer17_sd         =   2.6640251798697E-02
(PID.TID 0000.0001) %MON trcstat_ptracer17_del2       =   2.4370889493709E-04
(PID.TID 0000.0001) %MON trcstat_ptracer18_max        =   1.3532351493516E-04
(PID.TID 0000.0001) %MON trcstat_ptracer18_min        =  -4.9313750690349E-06
(PID.TID 0000.0001) %MON trcstat_ptracer18_mean       =   6.2436789346285E-07
(PID.TID 0000.0001) %MON trcstat_ptracer18_sd         =   1.6650157278405E-06
(PID.TID 0000.0001) %MON trcstat_ptracer18_del2       =   1.5231805869803E-08
(PID.TID 0000.0001) %MON trcstat_ptracer19_max        =   1.9597364190863E+01
(PID.TID 0000.0001) %MON trcstat_ptracer19_min        =  -2.8987487160005E-01
(PID.TID 0000.0001) %MON trcstat_ptracer19_mean       =   1.3462792425978E-01
(PID.TID 0000.0001) %MON trcstat_ptracer19_sd         =   3.4091623040396E-01
(PID.TID 0000.0001) %MON trcstat_ptracer19_del2       =   2.0147232931721E-03
(PID.TID 0000.0001) %MON trcstat_ptracer20_max        =   3.2591122398034E-01
(PID.TID 0000.0001) %MON trcstat_ptracer20_min        =  -2.8757599513108E-02
(PID.TID 0000.0001) %MON trcstat_ptracer20_mean       =   5.1572230208306E-04
(PID.TID 0000.0001) %MON trcstat_ptracer20_sd         =   5.8918945999081E-03
(PID.TID 0000.0001) %MON trcstat_ptracer20_del2       =   6.6567211539638E-05
(PID.TID 0000.0001) %MON trcstat_ptracer21_max        =   8.5269621679918E-01
(PID.TID 0000.0001) %MON trcstat_ptracer21_min        =  -1.2481999335442E-01
(PID.TID 0000.0001) %MON trcstat_ptracer21_mean       =   3.2418279878039E-03
(PID.TID 0000.0001) %MON trcstat_ptracer21_sd         =   2.2827578820913E-02
(PID.TID 0000.0001) %MON trcstat_ptracer21_del2       =   2.1798184048802E-04
(PID.TID 0000.0001) %MON trcstat_ptracer22_max        =   1.7327424077158E-01
(PID.TID 0000.0001) %MON trcstat_ptracer22_min        =  -5.0738356032087E-02
(PID.TID 0000.0001) %MON trcstat_ptracer22_mean       =   6.9405934833722E-05
(PID.TID 0000.0001) %MON trcstat_ptracer22_sd         =   1.9213127657274E-03
(PID.TID 0000.0001) %MON trcstat_ptracer22_del2       =   4.2730847773117E-05
(PID.TID 0000.0001) %MON trcstat_ptracer23_max        =   1.0293790136043E-01
(PID.TID 0000.0001) %MON trcstat_ptracer23_min        =  -2.9808064991136E-02
(PID.TID 0000.0001) %MON trcstat_ptracer23_mean       =   3.2237294194714E-05
(PID.TID 0000.0001) %MON trcstat_ptracer23_sd         =   7.7818206128049E-04
(PID.TID 0000.0001) %MON trcstat_ptracer23_del2       =   2.0260505411786E-05
(PID.TID 0000.0001) %MON trcstat_ptracer24_max        =   1.4132615293559E-01
(PID.TID 0000.0001) %MON trcstat_ptracer24_min        =  -2.4575889451577E-02
(PID.TID 0000.0001) %MON trcstat_ptracer24_mean       =   3.2660534683811E-05
(PID.TID 0000.0001) %MON trcstat_ptracer24_sd         =   7.1890873024282E-04
(PID.TID 0000.0001) %MON trcstat_ptracer24_del2       =   1.4994229680222E-05
(PID.TID 0000.0001) %MON trcstat_ptracer25_max        =   2.2030338647234E-03
(PID.TID 0000.0001) %MON trcstat_ptracer25_min        =  -7.3768913468436E-04
(PID.TID 0000.0001) %MON trcstat_ptracer25_mean       =   1.2612591766258E-07
(PID.TID 0000.0001) %MON trcstat_ptracer25_sd         =   1.4886473753772E-05
(PID.TID 0000.0001) %MON trcstat_ptracer25_del2       =   1.9753026527535E-07
(PID.TID 0000.0001) %MON trcstat_ptracer26_max        =   2.6505076692807E-02
(PID.TID 0000.0001) %MON trcstat_ptracer26_min        =  -2.0295670379667E-03
(PID.TID 0000.0001) %MON trcstat_ptracer26_mean       =   6.9594028302706E-05
(PID.TID 0000.0001) %MON trcstat_ptracer26_sd         =   7.6952805455453E-04
(PID.TID 0000.0001) %MON trcstat_ptracer26_del2       =   5.2229766886789E-06
(PID.TID 0000.0001) %MON trcstat_ptracer27_max        =   6.3191150948607E+00
(PID.TID 0000.0001) %MON trcstat_ptracer27_min        =  -3.0444370554147E+00
(PID.TID 0000.0001) %MON trcstat_ptracer27_mean       =   1.4939544544780E-03
(PID.TID 0000.0001) %MON trcstat_ptracer27_sd         =   4.9528109714698E-02
(PID.TID 0000.0001) %MON trcstat_ptracer27_del2       =   1.2780239730258E-03
(PID.TID 0000.0001) %MON trcstat_ptracer28_max        =   3.3767497072777E+00
(PID.TID 0000.0001) %MON trcstat_ptracer28_min        =  -1.7884986157289E+00
(PID.TID 0000.0001) %MON trcstat_ptracer28_mean       =   7.3052239843517E-04
(PID.TID 0000.0001) %MON trcstat_ptracer28_sd         =   2.0311939235744E-02
(PID.TID 0000.0001) %MON trcstat_ptracer28_del2       =   6.0214507319929E-04
(PID.TID 0000.0001) %MON trcstat_ptracer29_max        =   9.0123664101829E-01
(PID.TID 0000.0001) %MON trcstat_ptracer29_min        =  -5.8982134701542E-01
(PID.TID 0000.0001) %MON trcstat_ptracer29_mean       =   1.8219196914549E-04
(PID.TID 0000.0001) %MON trcstat_ptracer29_sd         =   5.1830351851466E-03
(PID.TID 0000.0001) %MON trcstat_ptracer29_del2       =   1.2761327183851E-04
(PID.TID 0000.0001) %MON trcstat_ptracer30_max        =   7.0771435773528E-03
(PID.TID 0000.0001) %MON trcstat_ptracer30_min        =  -1.7716459928830E-02
(PID.TID 0000.0001) %MON trcstat_ptracer30_mean       =  -2.9066248792893E-07
(PID.TID 0000.0001) %MON trcstat_ptracer30_sd         =   9.3057611106133E-05
(PID.TID 0000.0001) %MON trcstat_ptracer30_del2       =   1.4291840619541E-06
(PID.TID 0000.0001) %MON trcstat_ptracer31_max        =   3.8528540643372E-01
(PID.TID 0000.0001) %MON trcstat_ptracer31_min        =  -4.8705201179295E-02
(PID.TID 0000.0001) %MON trcstat_ptracer31_mean       =   6.8395674924812E-04
(PID.TID 0000.0001) %MON trcstat_ptracer31_sd         =   8.4508926009919E-03
(PID.TID 0000.0001) %MON trcstat_ptracer31_del2       =   7.2417653200930E-05
(PID.TID 0000.0001) %MON trcstat_ptracer32_max        =   2.5072868615882E+03
(PID.TID 0000.0001) %MON trcstat_ptracer32_min        =   1.5725723477426E+03
(PID.TID 0000.0001) %MON trcstat_ptracer32_mean       =   2.3412050835796E+03
(PID.TID 0000.0001) %MON trcstat_ptracer32_sd         =   7.0736048188941E+01
(PID.TID 0000.0001) %MON trcstat_ptracer32_del2       =   8.7923694454725E-02
(PID.TID 0000.0001) %MON trcstat_ptracer33_max        =   1.0075562918386E+02
(PID.TID 0000.0001) %MON trcstat_ptracer33_min        =  -4.4802386713344E+00
(PID.TID 0000.0001) %MON trcstat_ptracer33_mean       =   4.9148724277642E-01
(PID.TID 0000.0001) %MON trcstat_ptracer33_sd         =   3.4623110820489E+00
(PID.TID 0000.0001) %MON trcstat_ptracer33_del2       =   1.9424236640175E-02
(PID.TID 0000.0001) %MON trcstat_ptracer34_max        =   2.6146090181031E+01
(PID.TID 0000.0001) %MON trcstat_ptracer34_min        =  -6.2038195657971E-01
(PID.TID 0000.0001) %MON trcstat_ptracer34_mean       =   1.8755292865601E-01
(PID.TID 0000.0001) %MON trcstat_ptracer34_sd         =   3.2761865420351E-01
(PID.TID 0000.0001) %MON trcstat_ptracer34_del2       =   3.0656066260254E-03
(PID.TID 0000.0001) %MON trcstat_ptracer35_max        =   3.7903410093014E+00
(PID.TID 0000.0001) %MON trcstat_ptracer35_min        =  -3.1590977254278E-02
(PID.TID 0000.0001) %MON trcstat_ptracer35_mean       =   2.6567440578628E-02
(PID.TID 0000.0001) %MON trcstat_ptracer35_sd         =   5.3463732932428E-02
(PID.TID 0000.0001) %MON trcstat_ptracer35_del2       =   4.3779734220896E-04
(PID.TID 0000.0001) %MON trcstat_ptracer36_max        =   2.7204223292644E+03
(PID.TID 0000.0001) %MON trcstat_ptracer36_min        =   1.6415283966976E+03
(PID.TID 0000.0001) %MON trcstat_ptracer36_mean       =   2.4566175478133E+03
(PID.TID 0000.0001) %MON trcstat_ptracer36_sd         =   5.3614887241888E+01
(PID.TID 0000.0001) %MON trcstat_ptracer36_del2       =   6.6286733504294E-02
(PID.TID 0000.0001) %MON trcstat_ptracer37_max        =   4.6470355080095E+02
(PID.TID 0000.0001) %MON trcstat_ptracer37_min        =  -5.3359249025717E+01
(PID.TID 0000.0001) %MON trcstat_ptracer37_mean       =   1.8800692589568E+02
(PID.TID 0000.0001) %MON trcstat_ptracer37_sd         =   5.4472718134975E+01
(PID.TID 0000.0001) %MON trcstat_ptracer37_del2       =   8.9691163874899E-02
(PID.TID 0000.0001) %MON trcstat_ptracer38_max        =   6.6114706617326E+00
(PID.TID 0000.0001) %MON trcstat_ptracer38_min        =  -4.8988575679877E-01
(PID.TID 0000.0001) %MON trcstat_ptracer38_mean       =   4.7024261027927E-03
(PID.TID 0000.0001) %MON trcstat_ptracer38_sd         =   9.4029197091496E-02
(PID.TID 0000.0001) %MON trcstat_ptracer38_del2       =   9.4882823809675E-04
(PID.TID 0000.0001) %MON trcstat_ptracer39_max        =   1.7530327067432E+01
(PID.TID 0000.0001) %MON trcstat_ptracer39_min        =  -1.5138928383668E+00
(PID.TID 0000.0001) %MON trcstat_ptracer39_mean       =   8.4291840343093E-03
(PID.TID 0000.0001) %MON trcstat_ptracer39_sd         =   2.0379543919800E-01
(PID.TID 0000.0001) %MON trcstat_ptracer39_del2       =   2.5348459933242E-03
(PID.TID 0000.0001) // =======================================================
(PID.TID 0000.0001) // End MONITOR ptracers field statistics
(PID.TID 0000.0001) // =======================================================
(PID.TID 0000.0001) EXF_SET_FLD: processing field "apco2",  file: apCO2_2000
(PID.TID 0000.0001) EXF_SET_FLD:   myIter, count0, count1:         3     12      1
(PID.TID 0000.0001) EXF_SET_FLD:   first, changed, fac:   F   F   0.498991935E+00
(PID.TID 0000.0001) EXF_SET_UV: processing fields "uwind" & "vwind"
(PID.TID 0000.0001) EXF_SET_UV:   files: EIG_u10m_2000 & EIG_v10m_2000
(PID.TID 0000.0001) EXF_SET_UV:   myIter, count0, count1:         3     12      1
(PID.TID 0000.0001) EXF_SET_UV:   first, changed, fac:   F   F   0.498991935E+00
(PID.TID 0000.0001) EXF_SET_FLD: processing field "atemp",  file: EIG_tmp2m_degC_plus_ECCO_v4r1_ctrl_2000
(PID.TID 0000.0001) EXF_SET_FLD:   myIter, count0, count1:         3     12      1
(PID.TID 0000.0001) EXF_SET_FLD:   first, changed, fac:   F   F   0.498991935E+00
(PID.TID 0000.0001) EXF_SET_FLD: processing field "aqh",  file: EIG_spfh2m_plus_ECCO_v4r1_ctrl_2000
(PID.TID 0000.0001) EXF_SET_FLD:   myIter, count0, count1:         3     12      1
(PID.TID 0000.0001) EXF_SET_FLD:   first, changed, fac:   F   F   0.498991935E+00
(PID.TID 0000.0001) EXF_SET_FLD: processing field "precip",  file: EIG_rain_plus_ECCO_v4r1_ctrl_2000
(PID.TID 0000.0001) EXF_SET_FLD:   myIter, count0, count1:         3     12      1
(PID.TID 0000.0001) EXF_SET_FLD:   first, changed, fac:   F   F   0.498991935E+00
(PID.TID 0000.0001) EXF_SET_FLD: processing field "swdown",  file: EIG_dsw_plus_ECCO_v4r1_ctrl_2000
(PID.TID 0000.0001) EXF_SET_FLD:   myIter, count0, count1:         3     12      1
(PID.TID 0000.0001) EXF_SET_FLD:   first, changed, fac:   F   F   0.498991935E+00
(PID.TID 0000.0001) EXF_SET_FLD: processing field "lwdown",  file: EIG_dlw_plus_ECCO_v4r1_ctrl_2000
(PID.TID 0000.0001) EXF_SET_FLD:   myIter, count0, count1:         3     12      1
(PID.TID 0000.0001) EXF_SET_FLD:   first, changed, fac:   F   F   0.498991935E+00
(PID.TID 0000.0001) EXF_SET_FLD: processing field "runoff",  file: runoff-2d-Fekete-1deg-mon-V4-SMOOTH.bin
(PID.TID 0000.0001) EXF_SET_FLD:   myIter, count0, count1:         3     12      1
(PID.TID 0000.0001) EXF_SET_FLD:   first, changed, fac:   F   F   0.498991935E+00
(PID.TID 0000.0001) // =======================================================
(PID.TID 0000.0001) // Begin MONITOR EXF statistics
(PID.TID 0000.0001) // =======================================================
(PID.TID 0000.0001) %MON exf_tsnumber                 =                     3
(PID.TID 0000.0001) %MON exf_time_sec                 =   2.7000000000000E+03
(PID.TID 0000.0001) %MON exf_ustress_max              =   1.3194205172167E-01
(PID.TID 0000.0001) %MON exf_ustress_min              =  -1.1243625465852E-01
(PID.TID 0000.0001) %MON exf_ustress_mean             =  -4.4186218839813E-03
(PID.TID 0000.0001) %MON exf_ustress_sd               =   4.0087520812461E-02
(PID.TID 0000.0001) %MON exf_ustress_del2             =   1.4489068876866E-04
(PID.TID 0000.0001) %MON exf_vstress_max              =   9.9481781824394E-02
(PID.TID 0000.0001) %MON exf_vstress_min              =  -1.0040498375255E-01
(PID.TID 0000.0001) %MON exf_vstress_mean             =  -3.5086279624663E-03
(PID.TID 0000.0001) %MON exf_vstress_sd               =   1.8013674018748E-02
(PID.TID 0000.0001) %MON exf_vstress_del2             =   9.7280127839227E-05
(PID.TID 0000.0001) %MON exf_hflux_max                =   4.1332276066845E+02
(PID.TID 0000.0001) %MON exf_hflux_min                =  -3.3216804464290E+02
(PID.TID 0000.0001) %MON exf_hflux_mean               =  -8.1848888354759E+01
(PID.TID 0000.0001) %MON exf_hflux_sd                 =   1.0067696085647E+02
(PID.TID 0000.0001) %MON exf_hflux_del2               =   7.3302356017365E-01
(PID.TID 0000.0001) %MON exf_sflux_max                =   8.5103219812036E-08
(PID.TID 0000.0001) %MON exf_sflux_min                =  -6.3532691844657E-07
(PID.TID 0000.0001) %MON exf_sflux_mean               =  -1.5665046732896E-08
(PID.TID 0000.0001) %MON exf_sflux_sd                 =   3.7495661803571E-08
(PID.TID 0000.0001) %MON exf_sflux_del2               =   3.5167217641951E-10
(PID.TID 0000.0001) %MON exf_uwind_max                =   9.5214546725408E+00
(PID.TID 0000.0001) %MON exf_uwind_min                =  -8.7608171889325E+00
(PID.TID 0000.0001) %MON exf_uwind_mean               =  -4.9438683230088E-01
(PID.TID 0000.0001) %MON exf_uwind_sd                 =   4.4177299791378E+00
(PID.TID 0000.0001) %MON exf_uwind_del2               =   1.2106925509691E-02
(PID.TID 0000.0001) %MON exf_vwind_max                =   8.7166901017803E+00
(PID.TID 0000.0001) %MON exf_vwind_min                =  -6.9963976135900E+00
(PID.TID 0000.0001) %MON exf_vwind_mean               =  -3.7890971062619E-01
(PID.TID 0000.0001) %MON exf_vwind_sd                 =   2.2077985672327E+00
(PID.TID 0000.0001) %MON exf_vwind_del2               =   9.5073057484301E-03
(PID.TID 0000.0001) %MON exf_wspeed_max               =   9.5370989865018E+00
(PID.TID 0000.0001) %MON exf_wspeed_min               =   4.9237853572222E-02
(PID.TID 0000.0001) %MON exf_wspeed_mean              =   4.4775006658428E+00
(PID.TID 0000.0001) %MON exf_wspeed_sd                =   2.1750152592991E+00
(PID.TID 0000.0001) %MON exf_wspeed_del2              =   2.6390282932905E-02
(PID.TID 0000.0001) %MON exf_atemp_max                =   3.0188429548656E+02
(PID.TID 0000.0001) %MON exf_atemp_min                =   2.4476914825976E+02
(PID.TID 0000.0001) %MON exf_atemp_mean               =   2.9041297721735E+02
(PID.TID 0000.0001) %MON exf_atemp_sd                 =   9.7907321035589E+00
(PID.TID 0000.0001) %MON exf_atemp_del2               =   9.0505905104936E-02
(PID.TID 0000.0001) %MON exf_aqh_max                  =   1.9837833511230E-02
(PID.TID 0000.0001) %MON exf_aqh_min                  =   3.5618470170985E-04
(PID.TID 0000.0001) %MON exf_aqh_mean                 =   1.1235053934310E-02
(PID.TID 0000.0001) %MON exf_aqh_sd                   =   5.1802462730064E-03
(PID.TID 0000.0001) %MON exf_aqh_del2                 =   5.8601126497869E-05
(PID.TID 0000.0001) %MON exf_lwflux_max               =   1.5497457469134E+02
(PID.TID 0000.0001) %MON exf_lwflux_min               =   4.3054380559674E+00
(PID.TID 0000.0001) %MON exf_lwflux_mean              =   4.1311822196786E+01
(PID.TID 0000.0001) %MON exf_lwflux_sd                =   1.3588209573041E+01
(PID.TID 0000.0001) %MON exf_lwflux_del2              =   1.9930751162081E-01
(PID.TID 0000.0001) %MON exf_evap_max                 =   8.5140894508737E-08
(PID.TID 0000.0001) %MON exf_evap_min                 =  -1.2833709880599E-08
(PID.TID 0000.0001) %MON exf_evap_mean                =   2.6032917663193E-08
(PID.TID 0000.0001) %MON exf_evap_sd                  =   1.7974017662477E-08
(PID.TID 0000.0001) %MON exf_evap_del2                =   1.6637406699068E-10
(PID.TID 0000.0001) %MON exf_precip_max               =   1.4861864767386E-07
(PID.TID 0000.0001) %MON exf_precip_min               =  -8.5436805366363E-09
(PID.TID 0000.0001) %MON exf_precip_mean              =   3.9996656386216E-08
(PID.TID 0000.0001) %MON exf_precip_sd                =   2.9092183366674E-08
(PID.TID 0000.0001) %MON exf_precip_del2              =   3.1033605504496E-10
(PID.TID 0000.0001) %MON exf_swflux_max               =   3.3128349996995E+01
(PID.TID 0000.0001) %MON exf_swflux_min               =  -3.5303406787864E+02
(PID.TID 0000.0001) %MON exf_swflux_mean              =  -1.9692447360419E+02
(PID.TID 0000.0001) %MON exf_swflux_sd                =   7.3603533959383E+01
(PID.TID 0000.0001) %MON exf_swflux_del2              =   9.3067870732068E-01
(PID.TID 0000.0001) %MON exf_swdown_max               =   3.8080649655751E+02
(PID.TID 0000.0001) %MON exf_swdown_min               =  -4.7326214281422E+01
(PID.TID 0000.0001) %MON exf_swdown_mean              =   2.1342964070877E+02
(PID.TID 0000.0001) %MON exf_swdown_sd                =   7.8891201695237E+01
(PID.TID 0000.0001) %MON exf_swdown_del2              =   1.0071690400679E+00
(PID.TID 0000.0001) %MON exf_lwdown_max               =   4.4360355718755E+02
(PID.TID 0000.0001) %MON exf_lwdown_min               =   1.5696681825171E+02
(PID.TID 0000.0001) %MON exf_lwdown_mean              =   3.6918899772950E+02
(PID.TID 0000.0001) %MON exf_lwdown_sd                =   5.1749032887170E+01
(PID.TID 0000.0001) %MON exf_lwdown_del2              =   1.5869193817493E+00
(PID.TID 0000.0001) %MON exf_runoff_max               =   5.5113170678830E-07
(PID.TID 0000.0001) %MON exf_runoff_min               =   0.0000000000000E+00
(PID.TID 0000.0001) %MON exf_runoff_mean              =   1.7013080098728E-09
(PID.TID 0000.0001) %MON exf_runoff_sd                =   1.1344198760966E-08
(PID.TID 0000.0001) %MON exf_runoff_del2              =   1.2654401632992E-10
(PID.TID 0000.0001) %MON exf_apco2_max                =   3.7074084651162E-04
(PID.TID 0000.0001) %MON exf_apco2_min                =   3.6819522740606E-04
(PID.TID 0000.0001) %MON exf_apco2_mean               =   3.6882202190995E-04
(PID.TID 0000.0001) %MON exf_apco2_sd                 =   5.2305919587067E-07
(PID.TID 0000.0001) %MON exf_apco2_del2               =   1.5223102805777E-06
(PID.TID 0000.0001) // =======================================================
(PID.TID 0000.0001) // End MONITOR EXF statistics
(PID.TID 0000.0001) // =======================================================
 EXTERNAL_FIELDS_LOAD,         3 : iP,iLd,i0,i1=   12    1   12    1 ; Wght=  0.4989583333  0.5010416667
 EXTERNAL_FIELDS_LOAD: (fu0,1),fu,fv=  0.0000E+00  0.0000E+00 -8.5337E-04  2.4529E-02
 EXTERNAL_FIELDS_LOAD: SST,SSS,Q,E-P=  0.0000E+00  0.0000E+00 -1.4153E+02 -4.1159E-05
DEBUG_STATS_RL:          Uvel (THERMODYNAMICS)  min= -2.35996885715314E-01
DEBUG_STATS_RL:          Uvel (THERMODYNAMICS)  max=  1.90528060003389E-01
DEBUG_STATS_RL:          Uvel (THERMODYNAMICS) mean=  4.29502109649299E-03
DEBUG_STATS_RL:          Uvel (THERMODYNAMICS) S.D.=  2.22455692667917E-02
DEBUG_STATS_RL:          Vvel (THERMODYNAMICS)  min= -2.15839109718960E-01
DEBUG_STATS_RL:          Vvel (THERMODYNAMICS)  max=  1.42022667618631E-01
DEBUG_STATS_RL:          Vvel (THERMODYNAMICS) mean= -1.14114287262353E-03
DEBUG_STATS_RL:          Vvel (THERMODYNAMICS) S.D.=  1.35334164665660E-02
DEBUG_STATS_RL:          Wvel (THERMODYNAMICS)  min= -9.43585707567082E-05
DEBUG_STATS_RL:          Wvel (THERMODYNAMICS)  max=  1.32570288091563E-04
DEBUG_STATS_RL:          Wvel (THERMODYNAMICS) mean=  2.77737286173509E-07
DEBUG_STATS_RL:          Wvel (THERMODYNAMICS) S.D.=  7.79857791182903E-06
DEBUG_STATS_RL:         Theta (THERMODYNAMICS)  min= -3.46745424691960E+00
DEBUG_STATS_RL:         Theta (THERMODYNAMICS)  max=  3.02454122886737E+01
DEBUG_STATS_RL:         Theta (THERMODYNAMICS) mean=  6.18036161368455E+00
DEBUG_STATS_RL:         Theta (THERMODYNAMICS) S.D.=  6.76155328765890E+00
DEBUG_STATS_RL:          Salt (THERMODYNAMICS)  min=  3.14845922694125E+01
DEBUG_STATS_RL:          Salt (THERMODYNAMICS)  max=  3.75567827535691E+01
DEBUG_STATS_RL:          Salt (THERMODYNAMICS) mean=  3.46619925796238E+01
DEBUG_STATS_RL:          Salt (THERMODYNAMICS) S.D.=  4.90698117746827E-01
DEBUG_STATS_RL:                   PTRACER.0001  min= -2.83450437007853E-01
DEBUG_STATS_RL:                   PTRACER.0001  max=  3.52291131156272E+00
DEBUG_STATS_RL:                   PTRACER.0001 mean=  1.96076804932138E+00
DEBUG_STATS_RL:                   PTRACER.0001 S.D.=  7.55642928741803E-01
DEBUG_STATS_RL:                   GNm1TRC.0001  min=  0.00000000000000E+00
DEBUG_STATS_RL:                   GNm1TRC.0001  max=  0.00000000000000E+00
DEBUG_STATS_RL:                   GNm1TRC.0001 mean=  0.00000000000000E+00
DEBUG_STATS_RL:                   GNm1TRC.0001 S.D.=  0.00000000000000E+00
DEBUG_STATS_RL:                   PTRACER.0002  min= -4.57707884662070E+00
DEBUG_STATS_RL:                   PTRACER.0002  max=  4.87221718233726E+01
DEBUG_STATS_RL:                   PTRACER.0002 mean=  2.77658045750453E+01
DEBUG_STATS_RL:                   PTRACER.0002 S.D.=  1.09465782278231E+01
DEBUG_STATS_RL:                   GNm1TRC.0002  min=  0.00000000000000E+00
DEBUG_STATS_RL:                   GNm1TRC.0002  max=  0.00000000000000E+00
DEBUG_STATS_RL:                   GNm1TRC.0002 mean=  0.00000000000000E+00
DEBUG_STATS_RL:                   GNm1TRC.0002 S.D.=  0.00000000000000E+00
DEBUG_STATS_RL:                   PTRACER.0003  min= -1.33703144697814E-04
DEBUG_STATS_RL:                   PTRACER.0003  max=  1.05243539486063E-03
DEBUG_STATS_RL:                   PTRACER.0003 mean=  5.88650475703533E-04
DEBUG_STATS_RL:                   PTRACER.0003 S.D.=  1.74748197855042E-04
DEBUG_STATS_RL:                   GNm1TRC.0003  min=  0.00000000000000E+00
DEBUG_STATS_RL:                   GNm1TRC.0003  max=  0.00000000000000E+00
DEBUG_STATS_RL:                   GNm1TRC.0003 mean=  0.00000000000000E+00
DEBUG_STATS_RL:                   GNm1TRC.0003 S.D.=  0.00000000000000E+00
DEBUG_STATS_RL:                   PTRACER.0004  min= -2.53977533948294E+01
DEBUG_STATS_RL:                   PTRACER.0004  max=  1.98923296900061E+02
DEBUG_STATS_RL:                   PTRACER.0004 mean=  6.95789648387309E+01
DEBUG_STATS_RL:                   PTRACER.0004 S.D.=  5.06341934106956E+01
DEBUG_STATS_RL:                   GNm1TRC.0004  min=  0.00000000000000E+00
DEBUG_STATS_RL:                   GNm1TRC.0004  max=  0.00000000000000E+00
DEBUG_STATS_RL:                   GNm1TRC.0004 mean=  0.00000000000000E+00
DEBUG_STATS_RL:                   GNm1TRC.0004 S.D.=  0.00000000000000E+00
DEBUG_STATS_RL:                   PTRACER.0005  min= -1.82128894724023E-02
DEBUG_STATS_RL:                   PTRACER.0005  max=  5.66688926364316E-01
DEBUG_STATS_RL:                   PTRACER.0005 mean=  1.19413762777553E-02
DEBUG_STATS_RL:                   PTRACER.0005 S.D.=  4.21800142939008E-02
DEBUG_STATS_RL:                   GNm1TRC.0005  min=  0.00000000000000E+00
DEBUG_STATS_RL:                   GNm1TRC.0005  max=  0.00000000000000E+00
DEBUG_STATS_RL:                   GNm1TRC.0005 mean=  0.00000000000000E+00
DEBUG_STATS_RL:                   GNm1TRC.0005 S.D.=  0.00000000000000E+00
DEBUG_STATS_RL:                   PTRACER.0006  min= -2.91406231558437E-01
DEBUG_STATS_RL:                   PTRACER.0006  max=  9.06702282182906E+00
DEBUG_STATS_RL:                   PTRACER.0006 mean=  1.91062020444082E-01
DEBUG_STATS_RL:                   PTRACER.0006 S.D.=  6.74880228702414E-01
DEBUG_STATS_RL:                   GNm1TRC.0006  min=  0.00000000000000E+00
DEBUG_STATS_RL:                   GNm1TRC.0006  max=  0.00000000000000E+00
DEBUG_STATS_RL:                   GNm1TRC.0006 mean=  0.00000000000000E+00
DEBUG_STATS_RL:                   GNm1TRC.0006 S.D.=  0.00000000000000E+00
DEBUG_STATS_RL:                   PTRACER.0007  min= -1.82128893703236E-05
DEBUG_STATS_RL:                   PTRACER.0007  max=  5.66688919385060E-04
DEBUG_STATS_RL:                   PTRACER.0007 mean=  1.19413762679440E-05
DEBUG_STATS_RL:                   PTRACER.0007 S.D.=  4.21800142197992E-05
DEBUG_STATS_RL:                   GNm1TRC.0007  min=  0.00000000000000E+00
DEBUG_STATS_RL:                   GNm1TRC.0007  max=  0.00000000000000E+00
DEBUG_STATS_RL:                   GNm1TRC.0007 mean=  0.00000000000000E+00
DEBUG_STATS_RL:                   GNm1TRC.0007 S.D.=  0.00000000000000E+00
DEBUG_STATS_RL:                   PTRACER.0008  min= -4.08230151115134E-03
DEBUG_STATS_RL:                   PTRACER.0008  max=  5.50912285252489E-02
DEBUG_STATS_RL:                   PTRACER.0008 mean=  1.93650831562237E-04
DEBUG_STATS_RL:                   PTRACER.0008 S.D.=  1.75269344257878E-03
DEBUG_STATS_RL:                   GNm1TRC.0008  min=  0.00000000000000E+00
DEBUG_STATS_RL:                   GNm1TRC.0008  max=  0.00000000000000E+00
DEBUG_STATS_RL:                   GNm1TRC.0008 mean=  0.00000000000000E+00
DEBUG_STATS_RL:                   GNm1TRC.0008 S.D.=  0.00000000000000E+00
DEBUG_STATS_RL:                   PTRACER.0009  min= -6.53168241784215E-02
DEBUG_STATS_RL:                   PTRACER.0009  max=  8.81459656403982E-01
DEBUG_STATS_RL:                   PTRACER.0009 mean=  3.09841330500583E-03
DEBUG_STATS_RL:                   PTRACER.0009 S.D.=  2.80430950812628E-02
DEBUG_STATS_RL:                   GNm1TRC.0009  min=  0.00000000000000E+00
DEBUG_STATS_RL:                   GNm1TRC.0009  max=  0.00000000000000E+00
DEBUG_STATS_RL:                   GNm1TRC.0009 mean=  0.00000000000000E+00
DEBUG_STATS_RL:                   GNm1TRC.0009 S.D.=  0.00000000000000E+00
DEBUG_STATS_RL:                   PTRACER.0010  min= -4.08230155843987E-06
DEBUG_STATS_RL:                   PTRACER.0010  max=  5.50912287286751E-05
DEBUG_STATS_RL:                   PTRACER.0010 mean=  1.93650831890243E-07
DEBUG_STATS_RL:                   PTRACER.0010 S.D.=  1.75269345036670E-06
DEBUG_STATS_RL:                   GNm1TRC.0010  min=  0.00000000000000E+00
DEBUG_STATS_RL:                   GNm1TRC.0010  max=  0.00000000000000E+00
DEBUG_STATS_RL:                   GNm1TRC.0010 mean=  0.00000000000000E+00
DEBUG_STATS_RL:                   GNm1TRC.0010 S.D.=  0.00000000000000E+00
DEBUG_STATS_RL:                   PTRACER.0011  min= -1.20392200186675E-03
DEBUG_STATS_RL:                   PTRACER.0011  max=  1.91140125608571E-02
DEBUG_STATS_RL:                   PTRACER.0011 mean=  3.37864126840722E-05
DEBUG_STATS_RL:                   PTRACER.0011 S.D.=  4.25910959532285E-04
DEBUG_STATS_RL:                   GNm1TRC.0011  min=  0.00000000000000E+00
DEBUG_STATS_RL:                   GNm1TRC.0011  max=  0.00000000000000E+00
DEBUG_STATS_RL:                   GNm1TRC.0011 mean=  0.00000000000000E+00
DEBUG_STATS_RL:                   GNm1TRC.0011 S.D.=  0.00000000000000E+00
DEBUG_STATS_RL:                   PTRACER.0012  min= -1.26132776485450E-02
DEBUG_STATS_RL:                   PTRACER.0012  max=  1.46073422954561E-01
DEBUG_STATS_RL:                   PTRACER.0012 mean=  3.90226787587240E-04
DEBUG_STATS_RL:                   PTRACER.0012 S.D.=  3.98568750463031E-03
DEBUG_STATS_RL:                   GNm1TRC.0012  min=  0.00000000000000E+00
DEBUG_STATS_RL:                   GNm1TRC.0012  max=  0.00000000000000E+00
DEBUG_STATS_RL:                   GNm1TRC.0012 mean=  0.00000000000000E+00
DEBUG_STATS_RL:                   GNm1TRC.0012 S.D.=  0.00000000000000E+00
DEBUG_STATS_RL:                   PTRACER.0013  min= -2.01812442376721E-01
DEBUG_STATS_RL:                   PTRACER.0013  max=  2.33717476727298E+00
DEBUG_STATS_RL:                   PTRACER.0013 mean=  6.24362860142674E-03
DEBUG_STATS_RL:                   PTRACER.0013 S.D.=  6.37710000740839E-02
DEBUG_STATS_RL:                   GNm1TRC.0013  min=  0.00000000000000E+00
DEBUG_STATS_RL:                   GNm1TRC.0013  max=  0.00000000000000E+00
DEBUG_STATS_RL:                   GNm1TRC.0013 mean=  0.00000000000000E+00
DEBUG_STATS_RL:                   GNm1TRC.0013 S.D.=  0.00000000000000E+00
DEBUG_STATS_RL:                   PTRACER.0014  min= -1.26132773286509E-05
DEBUG_STATS_RL:                   PTRACER.0014  max=  1.46073431788716E-04
DEBUG_STATS_RL:                   PTRACER.0014 mean=  3.90226788966287E-07
DEBUG_STATS_RL:                   PTRACER.0014 S.D.=  3.98568754380451E-06
DEBUG_STATS_RL:                   GNm1TRC.0014  min=  0.00000000000000E+00
DEBUG_STATS_RL:                   GNm1TRC.0014  max=  0.00000000000000E+00
DEBUG_STATS_RL:                   GNm1TRC.0014 mean=  0.00000000000000E+00
DEBUG_STATS_RL:                   GNm1TRC.0014 S.D.=  0.00000000000000E+00
DEBUG_STATS_RL:                   PTRACER.0015  min= -3.72331613527472E-02
DEBUG_STATS_RL:                   PTRACER.0015  max=  9.25073523713350E-01
DEBUG_STATS_RL:                   PTRACER.0015 mean=  2.32851366698746E-03
DEBUG_STATS_RL:                   PTRACER.0015 S.D.=  2.30223479170838E-02
DEBUG_STATS_RL:                   GNm1TRC.0015  min=  0.00000000000000E+00
DEBUG_STATS_RL:                   GNm1TRC.0015  max=  0.00000000000000E+00
DEBUG_STATS_RL:                   GNm1TRC.0015 mean=  0.00000000000000E+00
DEBUG_STATS_RL:                   GNm1TRC.0015 S.D.=  0.00000000000000E+00
DEBUG_STATS_RL:                   PTRACER.0016  min= -4.92900587390546E-03
DEBUG_STATS_RL:                   PTRACER.0016  max=  1.35129292701213E-01
DEBUG_STATS_RL:                   PTRACER.0016 mean=  1.29946624759587E-03
DEBUG_STATS_RL:                   PTRACER.0016 S.D.=  3.00644439857708E-03
DEBUG_STATS_RL:                   GNm1TRC.0016  min=  0.00000000000000E+00
DEBUG_STATS_RL:                   GNm1TRC.0016  max=  0.00000000000000E+00
DEBUG_STATS_RL:                   GNm1TRC.0016 mean=  0.00000000000000E+00
DEBUG_STATS_RL:                   GNm1TRC.0016 S.D.=  0.00000000000000E+00
DEBUG_STATS_RL:                   PTRACER.0017  min= -7.88640268470133E-02
DEBUG_STATS_RL:                   PTRACER.0017  max=  2.16264557015419E+00
DEBUG_STATS_RL:                   PTRACER.0017 mean=  2.08387075384726E-02
DEBUG_STATS_RL:                   PTRACER.0017 S.D.=  4.81971784070757E-02
DEBUG_STATS_RL:                   GNm1TRC.0017  min=  0.00000000000000E+00
DEBUG_STATS_RL:                   GNm1TRC.0017  max=  0.00000000000000E+00
DEBUG_STATS_RL:                   GNm1TRC.0017 mean=  0.00000000000000E+00
DEBUG_STATS_RL:                   GNm1TRC.0017 S.D.=  0.00000000000000E+00
DEBUG_STATS_RL:                   PTRACER.0018  min= -4.92900158709412E-06
DEBUG_STATS_RL:                   PTRACER.0018  max=  1.35165343360621E-04
DEBUG_STATS_RL:                   PTRACER.0018 mean=  1.30241922035985E-06
DEBUG_STATS_RL:                   PTRACER.0018 S.D.=  3.01232363029951E-06
DEBUG_STATS_RL:                   GNm1TRC.0018  min=  0.00000000000000E+00
DEBUG_STATS_RL:                   GNm1TRC.0018  max=  0.00000000000000E+00
DEBUG_STATS_RL:                   GNm1TRC.0018 mean=  0.00000000000000E+00
DEBUG_STATS_RL:                   GNm1TRC.0018 S.D.=  0.00000000000000E+00
DEBUG_STATS_RL:                   PTRACER.0019  min= -2.89777359274839E-01
DEBUG_STATS_RL:                   PTRACER.0019  max=  1.95964717148569E+01
DEBUG_STATS_RL:                   PTRACER.0019 mean=  1.24644080732823E-01
DEBUG_STATS_RL:                   PTRACER.0019 S.D.=  3.18052425026516E-01
DEBUG_STATS_RL:                   GNm1TRC.0019  min=  0.00000000000000E+00
DEBUG_STATS_RL:                   GNm1TRC.0019  max=  0.00000000000000E+00
DEBUG_STATS_RL:                   GNm1TRC.0019 mean=  0.00000000000000E+00
DEBUG_STATS_RL:                   GNm1TRC.0019 S.D.=  0.00000000000000E+00
DEBUG_STATS_RL:                   PTRACER.0020  min= -2.87499583094289E-02
DEBUG_STATS_RL:                   PTRACER.0020  max=  3.25688945545099E-01
DEBUG_STATS_RL:                   PTRACER.0020 mean=  3.01241694614456E-03
DEBUG_STATS_RL:                   PTRACER.0020 S.D.=  1.51543592858976E-02
DEBUG_STATS_RL:                   GNm1TRC.0020  min=  0.00000000000000E+00
DEBUG_STATS_RL:                   GNm1TRC.0020  max=  0.00000000000000E+00
DEBUG_STATS_RL:                   GNm1TRC.0020 mean=  0.00000000000000E+00
DEBUG_STATS_RL:                   GNm1TRC.0020 S.D.=  0.00000000000000E+00
DEBUG_STATS_RL:                   PTRACER.0021  min= -1.24800640160802E-01
DEBUG_STATS_RL:                   PTRACER.0021  max=  8.52333992995721E-01
DEBUG_STATS_RL:                   PTRACER.0021 mean=  1.47707515853324E-02
DEBUG_STATS_RL:                   PTRACER.0021 S.D.=  5.64372285956964E-02
DEBUG_STATS_RL:                   GNm1TRC.0021  min=  0.00000000000000E+00
DEBUG_STATS_RL:                   GNm1TRC.0021  max=  0.00000000000000E+00
DEBUG_STATS_RL:                   GNm1TRC.0021 mean=  0.00000000000000E+00
DEBUG_STATS_RL:                   GNm1TRC.0021 S.D.=  0.00000000000000E+00
DEBUG_STATS_RL:                   PTRACER.0022  min= -5.07181718053695E-02
DEBUG_STATS_RL:                   PTRACER.0022  max=  1.73215015035488E-01
DEBUG_STATS_RL:                   PTRACER.0022 mean=  5.25703097290028E-04
DEBUG_STATS_RL:                   PTRACER.0022 S.D.=  5.66338592816826E-03
DEBUG_STATS_RL:                   GNm1TRC.0022  min=  0.00000000000000E+00
DEBUG_STATS_RL:                   GNm1TRC.0022  max=  0.00000000000000E+00
DEBUG_STATS_RL:                   GNm1TRC.0022 mean=  0.00000000000000E+00
DEBUG_STATS_RL:                   GNm1TRC.0022 S.D.=  0.00000000000000E+00
DEBUG_STATS_RL:                   PTRACER.0023  min= -2.97997362726468E-02
DEBUG_STATS_RL:                   PTRACER.0023  max=  1.02925477668760E-01
DEBUG_STATS_RL:                   PTRACER.0023 mean=  2.23970450601162E-04
DEBUG_STATS_RL:                   PTRACER.0023 S.D.=  2.25507843437879E-03
DEBUG_STATS_RL:                   GNm1TRC.0023  min=  0.00000000000000E+00
DEBUG_STATS_RL:                   GNm1TRC.0023  max=  0.00000000000000E+00
DEBUG_STATS_RL:                   GNm1TRC.0023 mean=  0.00000000000000E+00
DEBUG_STATS_RL:                   GNm1TRC.0023 S.D.=  0.00000000000000E+00
DEBUG_STATS_RL:                   PTRACER.0024  min= -2.45686492452556E-02
DEBUG_STATS_RL:                   PTRACER.0024  max=  1.41245765497582E-01
DEBUG_STATS_RL:                   PTRACER.0024 mean=  1.75282028957560E-04
DEBUG_STATS_RL:                   PTRACER.0024 S.D.=  1.76840876031488E-03
DEBUG_STATS_RL:                   GNm1TRC.0024  min=  0.00000000000000E+00
DEBUG_STATS_RL:                   GNm1TRC.0024  max=  0.00000000000000E+00
DEBUG_STATS_RL:                   GNm1TRC.0024 mean=  0.00000000000000E+00
DEBUG_STATS_RL:                   GNm1TRC.0024 S.D.=  0.00000000000000E+00
DEBUG_STATS_RL:                   PTRACER.0025  min= -7.37365762381247E-04
DEBUG_STATS_RL:                   PTRACER.0025  max=  2.20269733660224E-03
DEBUG_STATS_RL:                   PTRACER.0025 mean=  6.05440627355592E-07
DEBUG_STATS_RL:                   PTRACER.0025 S.D.=  3.24870495014385E-05
DEBUG_STATS_RL:                   GNm1TRC.0025  min=  0.00000000000000E+00
DEBUG_STATS_RL:                   GNm1TRC.0025  max=  0.00000000000000E+00
DEBUG_STATS_RL:                   GNm1TRC.0025 mean=  0.00000000000000E+00
DEBUG_STATS_RL:                   GNm1TRC.0025 S.D.=  0.00000000000000E+00
DEBUG_STATS_RL:                   PTRACER.0026  min= -2.02934437531144E-03
DEBUG_STATS_RL:                   PTRACER.0026  max=  2.65032857919509E-02
DEBUG_STATS_RL:                   PTRACER.0026 mean=  3.49466507627101E-04
DEBUG_STATS_RL:                   PTRACER.0026 S.D.=  1.69244622556914E-03
DEBUG_STATS_RL:                   GNm1TRC.0026  min=  0.00000000000000E+00
DEBUG_STATS_RL:                   GNm1TRC.0026  max=  0.00000000000000E+00
DEBUG_STATS_RL:                   GNm1TRC.0026 mean=  0.00000000000000E+00
DEBUG_STATS_RL:                   GNm1TRC.0026 S.D.=  0.00000000000000E+00
DEBUG_STATS_RL:                   PTRACER.0027  min= -3.04327014557753E+00
DEBUG_STATS_RL:                   PTRACER.0027  max=  6.31793781716283E+00
DEBUG_STATS_RL:                   PTRACER.0027 mean=  1.05073759587225E-02
DEBUG_STATS_RL:                   PTRACER.0027 S.D.=  1.47644508484151E-01
DEBUG_STATS_RL:                   GNm1TRC.0027  min=  0.00000000000000E+00
DEBUG_STATS_RL:                   GNm1TRC.0027  max=  0.00000000000000E+00
DEBUG_STATS_RL:                   GNm1TRC.0027 mean=  0.00000000000000E+00
DEBUG_STATS_RL:                   GNm1TRC.0027 S.D.=  0.00000000000000E+00
DEBUG_STATS_RL:                   PTRACER.0028  min= -1.78800312009286E+00
DEBUG_STATS_RL:                   PTRACER.0028  max=  3.37430724531071E+00
DEBUG_STATS_RL:                   PTRACER.0028 mean=  4.47885158156185E-03
DEBUG_STATS_RL:                   PTRACER.0028 S.D.=  5.99083831588709E-02
DEBUG_STATS_RL:                   GNm1TRC.0028  min=  0.00000000000000E+00
DEBUG_STATS_RL:                   GNm1TRC.0028  max=  0.00000000000000E+00
DEBUG_STATS_RL:                   GNm1TRC.0028 mean=  0.00000000000000E+00
DEBUG_STATS_RL:                   GNm1TRC.0028 S.D.=  0.00000000000000E+00
DEBUG_STATS_RL:                   PTRACER.0029  min= -5.89647582092460E-01
DEBUG_STATS_RL:                   PTRACER.0029  max=  9.00707348129230E-01
DEBUG_STATS_RL:                   PTRACER.0029 mean=  9.62939464813864E-04
DEBUG_STATS_RL:                   PTRACER.0029 S.D.=  1.25663800770259E-02
DEBUG_STATS_RL:                   GNm1TRC.0029  min=  0.00000000000000E+00
DEBUG_STATS_RL:                   GNm1TRC.0029  max=  0.00000000000000E+00
DEBUG_STATS_RL:                   GNm1TRC.0029 mean=  0.00000000000000E+00
DEBUG_STATS_RL:                   GNm1TRC.0029 S.D.=  0.00000000000000E+00
DEBUG_STATS_RL:                   PTRACER.0030  min= -1.77121000021932E-02
DEBUG_STATS_RL:                   PTRACER.0030  max=  7.07609430812068E-03
DEBUG_STATS_RL:                   PTRACER.0030 mean= -1.41934651833645E-06
DEBUG_STATS_RL:                   PTRACER.0030 S.D.=  2.04050182549810E-04
DEBUG_STATS_RL:                   GNm1TRC.0030  min=  0.00000000000000E+00
DEBUG_STATS_RL:                   GNm1TRC.0030  max=  0.00000000000000E+00
DEBUG_STATS_RL:                   GNm1TRC.0030 mean=  0.00000000000000E+00
DEBUG_STATS_RL:                   GNm1TRC.0030 S.D.=  0.00000000000000E+00
DEBUG_STATS_RL:                   PTRACER.0031  min= -4.86983455049633E-02
DEBUG_STATS_RL:                   PTRACER.0031  max=  3.85245603554768E-01
DEBUG_STATS_RL:                   PTRACER.0031 mean=  3.40257310262547E-03
DEBUG_STATS_RL:                   PTRACER.0031 S.D.=  1.84925906900011E-02
DEBUG_STATS_RL:                   GNm1TRC.0031  min=  0.00000000000000E+00
DEBUG_STATS_RL:                   GNm1TRC.0031  max=  0.00000000000000E+00
DEBUG_STATS_RL:                   GNm1TRC.0031 mean=  0.00000000000000E+00
DEBUG_STATS_RL:                   GNm1TRC.0031 S.D.=  0.00000000000000E+00
DEBUG_STATS_RL:                   PTRACER.0032  min=  1.57265945379486E+03
DEBUG_STATS_RL:                   PTRACER.0032  max=  2.50728439240825E+03
DEBUG_STATS_RL:                   PTRACER.0032 mean=  2.29724946641121E+03
DEBUG_STATS_RL:                   PTRACER.0032 S.D.=  9.83985326618461E+01
DEBUG_STATS_RL:                   GNm1TRC.0032  min=  0.00000000000000E+00
DEBUG_STATS_RL:                   GNm1TRC.0032  max=  0.00000000000000E+00
DEBUG_STATS_RL:                   GNm1TRC.0032 mean=  0.00000000000000E+00
DEBUG_STATS_RL:                   GNm1TRC.0032 S.D.=  0.00000000000000E+00
DEBUG_STATS_RL:                   PTRACER.0033  min= -4.47785034518139E+00
DEBUG_STATS_RL:                   PTRACER.0033  max=  1.00748422626061E+02
DEBUG_STATS_RL:                   PTRACER.0033 mean=  2.68267836839173E+00
DEBUG_STATS_RL:                   PTRACER.0033 S.D.=  8.23326463225495E+00
DEBUG_STATS_RL:                   GNm1TRC.0033  min=  0.00000000000000E+00
DEBUG_STATS_RL:                   GNm1TRC.0033  max=  0.00000000000000E+00
DEBUG_STATS_RL:                   GNm1TRC.0033 mean=  0.00000000000000E+00
DEBUG_STATS_RL:                   GNm1TRC.0033 S.D.=  0.00000000000000E+00
DEBUG_STATS_RL:                   PTRACER.0034  min= -6.20084315611032E-01
DEBUG_STATS_RL:                   PTRACER.0034  max=  2.61128581802576E+01
DEBUG_STATS_RL:                   PTRACER.0034 mean=  2.62430088960558E-01
DEBUG_STATS_RL:                   PTRACER.0034 S.D.=  5.19059479605624E-01
DEBUG_STATS_RL:                   GNm1TRC.0034  min=  0.00000000000000E+00
DEBUG_STATS_RL:                   GNm1TRC.0034  max=  0.00000000000000E+00
DEBUG_STATS_RL:                   GNm1TRC.0034 mean=  0.00000000000000E+00
DEBUG_STATS_RL:                   GNm1TRC.0034 S.D.=  0.00000000000000E+00
DEBUG_STATS_RL:                   PTRACER.0035  min= -3.15794234764954E-02
DEBUG_STATS_RL:                   PTRACER.0035  max=  3.78546441957669E+00
DEBUG_STATS_RL:                   PTRACER.0035 mean=  2.48020044748325E-02
DEBUG_STATS_RL:                   PTRACER.0035 S.D.=  6.34178466515825E-02
DEBUG_STATS_RL:                   GNm1TRC.0035  min=  0.00000000000000E+00
DEBUG_STATS_RL:                   GNm1TRC.0035  max=  0.00000000000000E+00
DEBUG_STATS_RL:                   GNm1TRC.0035 mean=  0.00000000000000E+00
DEBUG_STATS_RL:                   GNm1TRC.0035 S.D.=  0.00000000000000E+00
DEBUG_STATS_RL:                   PTRACER.0036  min=  1.64162121784383E+03
DEBUG_STATS_RL:                   PTRACER.0036  max=  2.72042129400734E+03
DEBUG_STATS_RL:                   PTRACER.0036 mean=  2.42788302764609E+03
DEBUG_STATS_RL:                   PTRACER.0036 S.D.=  6.40208556306114E+01
DEBUG_STATS_RL:                   GNm1TRC.0036  min=  0.00000000000000E+00
DEBUG_STATS_RL:                   GNm1TRC.0036  max=  0.00000000000000E+00
DEBUG_STATS_RL:                   GNm1TRC.0036 mean=  0.00000000000000E+00
DEBUG_STATS_RL:                   GNm1TRC.0036 S.D.=  0.00000000000000E+00
DEBUG_STATS_RL:                   PTRACER.0037  min= -5.33442888758320E+01
DEBUG_STATS_RL:                   PTRACER.0037  max=  4.64676734995854E+02
DEBUG_STATS_RL:                   PTRACER.0037 mean=  1.94224139934659E+02
DEBUG_STATS_RL:                   PTRACER.0037 S.D.=  6.54246294305008E+01
DEBUG_STATS_RL:                   GNm1TRC.0037  min=  0.00000000000000E+00
DEBUG_STATS_RL:                   GNm1TRC.0037  max=  0.00000000000000E+00
DEBUG_STATS_RL:                   GNm1TRC.0037 mean=  0.00000000000000E+00
DEBUG_STATS_RL:                   GNm1TRC.0037 S.D.=  0.00000000000000E+00
DEBUG_STATS_RL:                   PTRACER.0038  min= -4.89876173888367E-01
DEBUG_STATS_RL:                   PTRACER.0038  max=  6.61094739330337E+00
DEBUG_STATS_RL:                   PTRACER.0038 mean=  2.32380998727267E-02
DEBUG_STATS_RL:                   PTRACER.0038 S.D.=  2.10323214652007E-01
DEBUG_STATS_RL:                   GNm1TRC.0038  min=  0.00000000000000E+00
DEBUG_STATS_RL:                   GNm1TRC.0038  max=  0.00000000000000E+00
DEBUG_STATS_RL:                   GNm1TRC.0038 mean=  0.00000000000000E+00
DEBUG_STATS_RL:                   GNm1TRC.0038 S.D.=  0.00000000000000E+00
DEBUG_STATS_RL:                   PTRACER.0039  min= -1.51359325081409E+00
DEBUG_STATS_RL:                   PTRACER.0039  max=  1.75288111115264E+01
DEBUG_STATS_RL:                   PTRACER.0039 mean=  4.68272145679605E-02
DEBUG_STATS_RL:                   PTRACER.0039 S.D.=  4.78282502018278E-01
DEBUG_STATS_RL:                   GNm1TRC.0039  min=  0.00000000000000E+00
DEBUG_STATS_RL:                   GNm1TRC.0039  max=  0.00000000000000E+00
DEBUG_STATS_RL:                   GNm1TRC.0039 mean=  0.00000000000000E+00
DEBUG_STATS_RL:                   GNm1TRC.0039 S.D.=  0.00000000000000E+00
DEBUG_STATS_RL:                   PTRACER.0040  min=  2.46150269071357E-18
DEBUG_STATS_RL:                   PTRACER.0040  max=  3.36893126418992E-05
DEBUG_STATS_RL:                   PTRACER.0040 mean=  2.54424735550646E-07
DEBUG_STATS_RL:                   PTRACER.0040 S.D.=  5.96870452821018E-07
DEBUG_STATS_RL:                   GNm1TRC.0040  min=  0.00000000000000E+00
DEBUG_STATS_RL:                   GNm1TRC.0040  max=  0.00000000000000E+00
DEBUG_STATS_RL:                   GNm1TRC.0040 mean=  0.00000000000000E+00
DEBUG_STATS_RL:                   GNm1TRC.0040 S.D.=  0.00000000000000E+00
DEBUG_STATS_RL:                EtaN (DYNAMICS)  min= -1.44298725032907E+00
DEBUG_STATS_RL:                EtaN (DYNAMICS)  max=  9.33728659625909E-01
DEBUG_STATS_RL:                EtaN (DYNAMICS) mean= -1.57626996459026E-01
DEBUG_STATS_RL:                EtaN (DYNAMICS) S.D.=  6.32157486999680E-01
DEBUG_STATS_RL:                Uvel (DYNAMICS)  min= -2.35996885715314E-01
DEBUG_STATS_RL:                Uvel (DYNAMICS)  max=  1.90528060003389E-01
DEBUG_STATS_RL:                Uvel (DYNAMICS) mean=  4.29502109649299E-03
DEBUG_STATS_RL:                Uvel (DYNAMICS) S.D.=  2.22455692667917E-02
DEBUG_STATS_RL:                Vvel (DYNAMICS)  min= -2.15839109718960E-01
DEBUG_STATS_RL:                Vvel (DYNAMICS)  max=  1.42022667618631E-01
DEBUG_STATS_RL:                Vvel (DYNAMICS) mean= -1.14114287262353E-03
DEBUG_STATS_RL:                Vvel (DYNAMICS) S.D.=  1.35334164665660E-02
DEBUG_STATS_RL:                Wvel (DYNAMICS)  min= -9.43585707567082E-05
DEBUG_STATS_RL:                Wvel (DYNAMICS)  max=  1.32570288091563E-04
DEBUG_STATS_RL:                Wvel (DYNAMICS) mean=  2.77737286173509E-07
DEBUG_STATS_RL:                Wvel (DYNAMICS) S.D.=  7.79857791182903E-06
DEBUG_STATS_RL:               Theta (DYNAMICS)  min= -3.46745424691960E+00
DEBUG_STATS_RL:               Theta (DYNAMICS)  max=  3.02454122886737E+01
DEBUG_STATS_RL:               Theta (DYNAMICS) mean=  6.18036161368455E+00
DEBUG_STATS_RL:               Theta (DYNAMICS) S.D.=  6.76155328765890E+00
DEBUG_STATS_RL:                Salt (DYNAMICS)  min=  3.14845922694125E+01
DEBUG_STATS_RL:                Salt (DYNAMICS)  max=  3.75567827535691E+01
DEBUG_STATS_RL:                Salt (DYNAMICS) mean=  3.46619925796238E+01
DEBUG_STATS_RL:                Salt (DYNAMICS) S.D.=  4.90698117746827E-01
DEBUG_STATS_RL:                  Gu (DYNAMICS)  min= -2.35960116802783E-01
DEBUG_STATS_RL:                  Gu (DYNAMICS)  max=  1.90723313723172E-01
DEBUG_STATS_RL:                  Gu (DYNAMICS) mean=  4.25227387097696E-03
DEBUG_STATS_RL:                  Gu (DYNAMICS) S.D.=  2.23094563259219E-02
DEBUG_STATS_RL:                  Gv (DYNAMICS)  min= -2.15758889315671E-01
DEBUG_STATS_RL:                  Gv (DYNAMICS)  max=  1.39099278469687E-01
DEBUG_STATS_RL:                  Gv (DYNAMICS) mean= -5.49860492415617E-04
DEBUG_STATS_RL:                  Gv (DYNAMICS) S.D.=  1.33918527265337E-02
DEBUG_STATS_RL:    cg2d_b (SOLVE_FOR_PRESSURE)  min= -1.12986744199372E+05
DEBUG_STATS_RL:    cg2d_b (SOLVE_FOR_PRESSURE)  max=  9.06789532032673E+04
DEBUG_STATS_RL:    cg2d_b (SOLVE_FOR_PRESSURE) mean= -7.54797972331616E-06
DEBUG_STATS_RL:    cg2d_b (SOLVE_FOR_PRESSURE) S.D.=  4.76523402689719E+04
 cg2d: Sum(rhs),rhsMax =  -2.97077502153797E-07  7.95118894552121E+00
(PID.TID 0000.0001)  cg2d: iter=     1 ; resid.=  1.25947746353827E-01
(PID.TID 0000.0001)  cg2d: iter=     2 ; resid.=  3.67394545284752E-02
(PID.TID 0000.0001)  cg2d: iter=     3 ; resid.=  1.11816891190145E-02
(PID.TID 0000.0001)  cg2d: iter=     4 ; resid.=  3.56278347203823E-03
(PID.TID 0000.0001)  cg2d: iter=     5 ; resid.=  1.17132614514613E-03
(PID.TID 0000.0001)  cg2d: iter=     6 ; resid.=  3.94311407381380E-04
(PID.TID 0000.0001)  cg2d: iter=     7 ; resid.=  1.42219604604829E-04
(PID.TID 0000.0001)  cg2d: iter=     8 ; resid.=  5.58295797038457E-05
(PID.TID 0000.0001)  cg2d: iter=     9 ; resid.=  1.79495380216836E-05
(PID.TID 0000.0001)  cg2d: iter=    10 ; resid.=  5.74183784247576E-06
(PID.TID 0000.0001)  cg2d: iter=    11 ; resid.=  1.96891201595611E-06
(PID.TID 0000.0001)  cg2d: iter=    12 ; resid.=  5.91060423232527E-07
(PID.TID 0000.0001)  cg2d: iter=    13 ; resid.=  1.72191252919420E-07
(PID.TID 0000.0001)  cg2d: iter=    14 ; resid.=  5.11529242622791E-08
(PID.TID 0000.0001)  cg2d: iter=    15 ; resid.=  1.43315381539711E-08
(PID.TID 0000.0001)  cg2d: iter=    16 ; resid.=  4.06893932875284E-09
(PID.TID 0000.0001)  cg2d: iter=    17 ; resid.=  1.20904924648322E-09
(PID.TID 0000.0001)  cg2d: iter=    18 ; resid.=  3.61240378527516E-10
(PID.TID 0000.0001)  cg2d: iter=    19 ; resid.=  1.17566386043823E-10
(PID.TID 0000.0001)  cg2d: iter=    20 ; resid.=  4.42943364402631E-11
(PID.TID 0000.0001)  cg2d: iter=    21 ; resid.=  1.63132042164669E-11
(PID.TID 0000.0001)  cg2d: iter=    22 ; resid.=  4.96294109988945E-12
(PID.TID 0000.0001)  cg2d: iter=    23 ; resid.=  1.65512974526028E-12
(PID.TID 0000.0001)  cg2d: iter=    24 ; resid.=  5.79782386259171E-13
(PID.TID 0000.0001)  cg2d: iter=    25 ; resid.=  1.83820595801032E-13
(PID.TID 0000.0001)  cg2d: iter=    26 ; resid.=  5.75403177404312E-14
DEBUG_STATS_RL:    cg2d_x (SOLVE_FOR_PRESSURE)  min= -1.41786248117371E+01
DEBUG_STATS_RL:    cg2d_x (SOLVE_FOR_PRESSURE)  max=  9.04126234892153E+00
DEBUG_STATS_RL:    cg2d_x (SOLVE_FOR_PRESSURE) mean= -1.53967681237326E+00
DEBUG_STATS_RL:    cg2d_x (SOLVE_FOR_PRESSURE) S.D.=  6.16108879289696E+00
(PID.TID 0000.0001)      cg2d_init_res =   4.76950671986065E-01
(PID.TID 0000.0001)      cg2d_iters(min,last) =      -1      26
(PID.TID 0000.0001)      cg2d_last_res =   5.75403177404312E-14
(PID.TID 0000.0001) // =======================================================
(PID.TID 0000.0001) // Begin MONITOR dynamic field statistics
(PID.TID 0000.0001) // =======================================================
(PID.TID 0000.0001) %MON time_tsnumber                =                     4
(PID.TID 0000.0001) %MON time_secondsf                =   3.6000000000000E+03
(PID.TID 0000.0001) %MON dynstat_eta_max              =   9.2163734443645E-01
(PID.TID 0000.0001) %MON dynstat_eta_min              =  -1.4453236301465E+00
(PID.TID 0000.0001) %MON dynstat_eta_mean             =   8.2306352448220E-11
(PID.TID 0000.0001) %MON dynstat_eta_sd               =   5.5493346512511E-01
(PID.TID 0000.0001) %MON dynstat_eta_del2             =   8.7168295992748E-04
(PID.TID 0000.0001) %MON dynstat_uvel_max             =   1.9068657080762E-01
(PID.TID 0000.0001) %MON dynstat_uvel_min             =  -2.3588030214735E-01
(PID.TID 0000.0001) %MON dynstat_uvel_mean            =   1.8345625931516E-03
(PID.TID 0000.0001) %MON dynstat_uvel_sd              =   1.3001589133009E-02
(PID.TID 0000.0001) %MON dynstat_uvel_del2            =   4.9907818066108E-05
(PID.TID 0000.0001) %MON dynstat_vvel_max             =   1.3882289145309E-01
(PID.TID 0000.0001) %MON dynstat_vvel_min             =  -2.1525972254342E-01
(PID.TID 0000.0001) %MON dynstat_vvel_mean            =  -9.4525540500847E-04
(PID.TID 0000.0001) %MON dynstat_vvel_sd              =   8.2335820014825E-03
(PID.TID 0000.0001) %MON dynstat_vvel_del2            =   4.1389145131734E-05
(PID.TID 0000.0001) %MON dynstat_wvel_max             =   1.9801885019335E-04
(PID.TID 0000.0001) %MON dynstat_wvel_min             =  -1.1862628397880E-04
(PID.TID 0000.0001) %MON dynstat_wvel_mean            =  -2.2971358339083E-16
(PID.TID 0000.0001) %MON dynstat_wvel_sd              =   7.7531389241317E-06
(PID.TID 0000.0001) %MON dynstat_wvel_del2            =   6.9790729893222E-08
(PID.TID 0000.0001) %MON dynstat_theta_max            =   3.0245412288674E+01
(PID.TID 0000.0001) %MON dynstat_theta_min            =  -3.4674542469196E+00
(PID.TID 0000.0001) %MON dynstat_theta_mean           =   3.8021435801218E+00
(PID.TID 0000.0001) %MON dynstat_theta_sd             =   4.5123151749771E+00
(PID.TID 0000.0001) %MON dynstat_theta_del2           =   2.5985195612388E-03
(PID.TID 0000.0001) %MON dynstat_salt_max             =   3.7556782753569E+01
(PID.TID 0000.0001) %MON dynstat_salt_min             =   3.1484592269413E+01
(PID.TID 0000.0001) %MON dynstat_salt_mean            =   3.4614648156382E+01
(PID.TID 0000.0001) %MON dynstat_salt_sd              =   3.1408494304201E-01
(PID.TID 0000.0001) %MON dynstat_salt_del2            =   4.0537261900380E-04
(PID.TID 0000.0001) %MON forcing_qnet_max             =   3.5026111583366E+02
(PID.TID 0000.0001) %MON forcing_qnet_min             =  -3.3216804464290E+02
(PID.TID 0000.0001) %MON forcing_qnet_mean            =  -8.2631343762640E+01
(PID.TID 0000.0001) %MON forcing_qnet_sd              =   9.8288616578556E+01
(PID.TID 0000.0001) %MON forcing_qnet_del2            =   5.9157541637435E-01
(PID.TID 0000.0001) %MON forcing_qsw_max              =   3.3128349996995E+01
(PID.TID 0000.0001) %MON forcing_qsw_min              =  -3.5303406787864E+02
(PID.TID 0000.0001) %MON forcing_qsw_mean             =  -1.9660891951029E+02
(PID.TID 0000.0001) %MON forcing_qsw_sd               =   7.3856345072886E+01
(PID.TID 0000.0001) %MON forcing_qsw_del2             =   3.3339642222301E-01
(PID.TID 0000.0001) %MON forcing_empmr_max            =   8.2725601609375E-04
(PID.TID 0000.0001) %MON forcing_empmr_min            =  -6.3532691844657E-04
(PID.TID 0000.0001) %MON forcing_empmr_mean           =  -1.4915999822759E-05
(PID.TID 0000.0001) %MON forcing_empmr_sd             =   4.3465016523928E-05
(PID.TID 0000.0001) %MON forcing_empmr_del2           =   8.0965865592651E-07
(PID.TID 0000.0001) %MON forcing_fu_max               =   1.3086590852313E-01
(PID.TID 0000.0001) %MON forcing_fu_min               =  -1.1233530891618E-01
(PID.TID 0000.0001) %MON forcing_fu_mean              =  -4.3594906541838E-03
(PID.TID 0000.0001) %MON forcing_fu_sd                =   4.0501162868790E-02
(PID.TID 0000.0001) %MON forcing_fu_del2              =   1.3881291770532E-04
(PID.TID 0000.0001) %MON forcing_fv_max               =   9.4390664796981E-02
(PID.TID 0000.0001) %MON forcing_fv_min               =  -9.5459547327761E-02
(PID.TID 0000.0001) %MON forcing_fv_mean              =  -3.4076748274380E-03
(PID.TID 0000.0001) %MON forcing_fv_sd                =   1.7672707574013E-02
(PID.TID 0000.0001) %MON forcing_fv_del2              =   8.2956646501520E-05
(PID.TID 0000.0001) %MON trAdv_CFL_u_max              =   7.2411325608397E-04
(PID.TID 0000.0001) %MON trAdv_CFL_v_max              =   6.2074653203788E-04
(PID.TID 0000.0001) %MON trAdv_CFL_w_max              =   1.3777555609873E-03
(PID.TID 0000.0001) %MON advcfl_uvel_max              =   7.3227301338547E-04
(PID.TID 0000.0001) %MON advcfl_vvel_max              =   6.1957795169332E-04
(PID.TID 0000.0001) %MON advcfl_wvel_max              =   3.0338056982851E-03
(PID.TID 0000.0001) %MON advcfl_W_hf_max              =   1.3029624443247E-03
(PID.TID 0000.0001) %MON pe_b_mean                    =   3.9690403741686E-04
(PID.TID 0000.0001) %MON ke_max                       =   3.0830421152156E-02
(PID.TID 0000.0001) %MON ke_mean                      =   1.1156830584262E-04
(PID.TID 0000.0001) %MON ke_vol                       =   1.2571476858570E+18
(PID.TID 0000.0001) %MON vort_r_min                   =  -8.7969780447813E-07
(PID.TID 0000.0001) %MON vort_r_max                   =   9.9930850086063E-07
(PID.TID 0000.0001) %MON vort_a_mean                  =  -2.4002453570026E-05
(PID.TID 0000.0001) %MON vort_a_sd                    =   7.3138174190686E-05
(PID.TID 0000.0001) %MON vort_p_mean                  =  -2.8585773838204E-05
(PID.TID 0000.0001) %MON vort_p_sd                    =   1.1453389974412E-04
(PID.TID 0000.0001) %MON surfExpan_theta_mean         =  -2.1434310714424E-05
(PID.TID 0000.0001) %MON surfExpan_salt_mean          =  -1.8655692745718E-06
(PID.TID 0000.0001) // =======================================================
(PID.TID 0000.0001) // End MONITOR dynamic field statistics
(PID.TID 0000.0001) // =======================================================
(PID.TID 0000.0001)  MDS_WRITE_FIELD: it,rec,kS,kL,kH=       4     1  15   1  15 file=U.0000000004
(PID.TID 0000.0001)  MDS_WRITE_FIELD: it,rec,kS,kL,kH=       4     1  15   1  15 file=V.0000000004
(PID.TID 0000.0001)  MDS_WRITE_FIELD: it,rec,kS,kL,kH=       4     1  15   1  15 file=T.0000000004
(PID.TID 0000.0001)  MDS_WRITE_FIELD: it,rec,kS,kL,kH=       4     1  15   1  15 file=S.0000000004
(PID.TID 0000.0001)  MDS_WRITE_FIELD: it,rec,kS,kL,kH=       4     1   1   1   1 file=Eta.0000000004
(PID.TID 0000.0001)  MDS_WRITE_FIELD: it,rec,kS,kL,kH=       4     1  15   1  15 file=W.0000000004
(PID.TID 0000.0001)  MDS_WRITE_FIELD: it,rec,kS,kL,kH=       4     1  15   1  15 file=PH.0000000004
(PID.TID 0000.0001)  MDS_WRITE_FIELD: it,rec,kS,kL,kH=       4     1   1   1   1 file=PHL.0000000004
(PID.TID 0000.0001) // =======================================================
(PID.TID 0000.0001) // Begin MONITOR SEAICE statistics
(PID.TID 0000.0001) // =======================================================
(PID.TID 0000.0001) %MON seaice_tsnumber              =                     4
(PID.TID 0000.0001) %MON seaice_time_sec              =   3.6000000000000E+03
(PID.TID 0000.0001) %MON seaice_uice_max              =   2.8569095016514E-01
(PID.TID 0000.0001) %MON seaice_uice_min              =  -3.6579701180193E-01
(PID.TID 0000.0001) %MON seaice_uice_mean             =  -3.4936981240547E-03
(PID.TID 0000.0001) %MON seaice_uice_sd               =   1.0289825162145E-01
(PID.TID 0000.0001) %MON seaice_uice_del2             =   5.3157032581015E-04
(PID.TID 0000.0001) %MON seaice_vice_max              =   1.5409450743376E-01
(PID.TID 0000.0001) %MON seaice_vice_min              =  -2.6805496517487E-01
(PID.TID 0000.0001) %MON seaice_vice_mean             =  -7.5920436994326E-03
(PID.TID 0000.0001) %MON seaice_vice_sd               =   3.9425864415909E-02
(PID.TID 0000.0001) %MON seaice_vice_del2             =   3.4284035614436E-04
(PID.TID 0000.0001) %MON seaice_area_max              =   9.5000000000000E-01
(PID.TID 0000.0001) %MON seaice_area_min              =   0.0000000000000E+00
(PID.TID 0000.0001) %MON seaice_area_mean             =   4.7130949973218E-03
(PID.TID 0000.0001) %MON seaice_area_sd               =   6.6639100593587E-02
(PID.TID 0000.0001) %MON seaice_area_del2             =   1.9397378983423E-03
(PID.TID 0000.0001) %MON seaice_heff_max              =   1.0010552045180E+00
(PID.TID 0000.0001) %MON seaice_heff_min              =   0.0000000000000E+00
(PID.TID 0000.0001) %MON seaice_heff_mean             =   4.9509245104544E-03
(PID.TID 0000.0001) %MON seaice_heff_sd               =   7.0143774324820E-02
(PID.TID 0000.0001) %MON seaice_heff_del2             =   2.0458750675180E-03
(PID.TID 0000.0001) %MON seaice_hsnow_max             =   2.0037548167123E-01
(PID.TID 0000.0001) %MON seaice_hsnow_min             =   0.0000000000000E+00
(PID.TID 0000.0001) %MON seaice_hsnow_mean            =   9.9023025273352E-04
(PID.TID 0000.0001) %MON seaice_hsnow_sd              =   1.4038725338585E-02
(PID.TID 0000.0001) %MON seaice_hsnow_del2            =   4.0973442926736E-04
(PID.TID 0000.0001) // =======================================================
(PID.TID 0000.0001) // End MONITOR SEAICE statistics
(PID.TID 0000.0001) // =======================================================
(PID.TID 0000.0001)  MDS_WRITE_FIELD: it,rec,kS,kL,kH=       4     1  15   1  15 file=PTRACER01.0000000004
(PID.TID 0000.0001)  MDS_WRITE_FIELD: it,rec,kS,kL,kH=       4     1  15   1  15 file=PTRACER02.0000000004
(PID.TID 0000.0001)  MDS_WRITE_FIELD: it,rec,kS,kL,kH=       4     1  15   1  15 file=PTRACER03.0000000004
(PID.TID 0000.0001)  MDS_WRITE_FIELD: it,rec,kS,kL,kH=       4     1  15   1  15 file=PTRACER04.0000000004
(PID.TID 0000.0001)  MDS_WRITE_FIELD: it,rec,kS,kL,kH=       4     1  15   1  15 file=PTRACER05.0000000004
(PID.TID 0000.0001)  MDS_WRITE_FIELD: it,rec,kS,kL,kH=       4     1  15   1  15 file=PTRACER06.0000000004
(PID.TID 0000.0001)  MDS_WRITE_FIELD: it,rec,kS,kL,kH=       4     1  15   1  15 file=PTRACER07.0000000004
(PID.TID 0000.0001)  MDS_WRITE_FIELD: it,rec,kS,kL,kH=       4     1  15   1  15 file=PTRACER08.0000000004
(PID.TID 0000.0001)  MDS_WRITE_FIELD: it,rec,kS,kL,kH=       4     1  15   1  15 file=PTRACER09.0000000004
(PID.TID 0000.0001)  MDS_WRITE_FIELD: it,rec,kS,kL,kH=       4     1  15   1  15 file=PTRACER10.0000000004
(PID.TID 0000.0001)  MDS_WRITE_FIELD: it,rec,kS,kL,kH=       4     1  15   1  15 file=PTRACER11.0000000004
(PID.TID 0000.0001)  MDS_WRITE_FIELD: it,rec,kS,kL,kH=       4     1  15   1  15 file=PTRACER12.0000000004
(PID.TID 0000.0001)  MDS_WRITE_FIELD: it,rec,kS,kL,kH=       4     1  15   1  15 file=PTRACER13.0000000004
(PID.TID 0000.0001)  MDS_WRITE_FIELD: it,rec,kS,kL,kH=       4     1  15   1  15 file=PTRACER14.0000000004
(PID.TID 0000.0001)  MDS_WRITE_FIELD: it,rec,kS,kL,kH=       4     1  15   1  15 file=PTRACER15.0000000004
(PID.TID 0000.0001)  MDS_WRITE_FIELD: it,rec,kS,kL,kH=       4     1  15   1  15 file=PTRACER16.0000000004
(PID.TID 0000.0001)  MDS_WRITE_FIELD: it,rec,kS,kL,kH=       4     1  15   1  15 file=PTRACER17.0000000004
(PID.TID 0000.0001)  MDS_WRITE_FIELD: it,rec,kS,kL,kH=       4     1  15   1  15 file=PTRACER18.0000000004
(PID.TID 0000.0001)  MDS_WRITE_FIELD: it,rec,kS,kL,kH=       4     1  15   1  15 file=PTRACER19.0000000004
(PID.TID 0000.0001)  MDS_WRITE_FIELD: it,rec,kS,kL,kH=       4     1  15   1  15 file=PTRACER20.0000000004
(PID.TID 0000.0001)  MDS_WRITE_FIELD: it,rec,kS,kL,kH=       4     1  15   1  15 file=PTRACER21.0000000004
(PID.TID 0000.0001)  MDS_WRITE_FIELD: it,rec,kS,kL,kH=       4     1  15   1  15 file=PTRACER22.0000000004
(PID.TID 0000.0001)  MDS_WRITE_FIELD: it,rec,kS,kL,kH=       4     1  15   1  15 file=PTRACER23.0000000004
(PID.TID 0000.0001)  MDS_WRITE_FIELD: it,rec,kS,kL,kH=       4     1  15   1  15 file=PTRACER24.0000000004
(PID.TID 0000.0001)  MDS_WRITE_FIELD: it,rec,kS,kL,kH=       4     1  15   1  15 file=PTRACER25.0000000004
(PID.TID 0000.0001)  MDS_WRITE_FIELD: it,rec,kS,kL,kH=       4     1  15   1  15 file=PTRACER26.0000000004
(PID.TID 0000.0001)  MDS_WRITE_FIELD: it,rec,kS,kL,kH=       4     1  15   1  15 file=PTRACER27.0000000004
(PID.TID 0000.0001)  MDS_WRITE_FIELD: it,rec,kS,kL,kH=       4     1  15   1  15 file=PTRACER28.0000000004
(PID.TID 0000.0001)  MDS_WRITE_FIELD: it,rec,kS,kL,kH=       4     1  15   1  15 file=PTRACER29.0000000004
(PID.TID 0000.0001)  MDS_WRITE_FIELD: it,rec,kS,kL,kH=       4     1  15   1  15 file=PTRACER30.0000000004
(PID.TID 0000.0001)  MDS_WRITE_FIELD: it,rec,kS,kL,kH=       4     1  15   1  15 file=PTRACER31.0000000004
(PID.TID 0000.0001)  MDS_WRITE_FIELD: it,rec,kS,kL,kH=       4     1  15   1  15 file=PTRACER32.0000000004
(PID.TID 0000.0001)  MDS_WRITE_FIELD: it,rec,kS,kL,kH=       4     1  15   1  15 file=PTRACER33.0000000004
(PID.TID 0000.0001)  MDS_WRITE_FIELD: it,rec,kS,kL,kH=       4     1  15   1  15 file=PTRACER34.0000000004
(PID.TID 0000.0001)  MDS_WRITE_FIELD: it,rec,kS,kL,kH=       4     1  15   1  15 file=PTRACER35.0000000004
(PID.TID 0000.0001)  MDS_WRITE_FIELD: it,rec,kS,kL,kH=       4     1  15   1  15 file=PTRACER36.0000000004
(PID.TID 0000.0001)  MDS_WRITE_FIELD: it,rec,kS,kL,kH=       4     1  15   1  15 file=PTRACER37.0000000004
(PID.TID 0000.0001)  MDS_WRITE_FIELD: it,rec,kS,kL,kH=       4     1  15   1  15 file=PTRACER38.0000000004
(PID.TID 0000.0001)  MDS_WRITE_FIELD: it,rec,kS,kL,kH=       4     1  15   1  15 file=PTRACER39.0000000004
(PID.TID 0000.0001) // =======================================================
(PID.TID 0000.0001) // Begin MONITOR ptracer field statistics
(PID.TID 0000.0001) // =======================================================
(PID.TID 0000.0001) %MON trcstat_ptracer01_max        =   3.5229115586342E+00
(PID.TID 0000.0001) %MON trcstat_ptracer01_min        =  -2.8344967578266E-01
(PID.TID 0000.0001) %MON trcstat_ptracer01_mean       =   2.1995417246757E+00
(PID.TID 0000.0001) %MON trcstat_ptracer01_sd         =   5.6154805483832E-01
(PID.TID 0000.0001) %MON trcstat_ptracer01_del2       =   7.9695576025142E-04
(PID.TID 0000.0001) %MON trcstat_ptracer02_max        =   4.8722172338481E+01
(PID.TID 0000.0001) %MON trcstat_ptracer02_min        =  -4.5770788466207E+00
(PID.TID 0000.0001) %MON trcstat_ptracer02_mean       =   3.1443326976495E+01
(PID.TID 0000.0001) %MON trcstat_ptracer02_sd         =   7.7583328347871E+00
(PID.TID 0000.0001) %MON trcstat_ptracer02_del2       =   1.1976993628899E-02
(PID.TID 0000.0001) %MON trcstat_ptracer03_max        =   1.0523884835752E-03
(PID.TID 0000.0001) %MON trcstat_ptracer03_min        =  -1.3367920714801E-04
(PID.TID 0000.0001) %MON trcstat_ptracer03_mean       =   5.7795944027784E-04
(PID.TID 0000.0001) %MON trcstat_ptracer03_sd         =   1.2480024837537E-04
(PID.TID 0000.0001) %MON trcstat_ptracer03_del2       =   5.1284378860683E-07
(PID.TID 0000.0001) %MON trcstat_ptracer04_max        =   1.9892330281982E+02
(PID.TID 0000.0001) %MON trcstat_ptracer04_min        =  -2.5397753394629E+01
(PID.TID 0000.0001) %MON trcstat_ptracer04_mean       =   9.1188426705186E+01
(PID.TID 0000.0001) %MON trcstat_ptracer04_sd         =   4.6073409787235E+01
(PID.TID 0000.0001) %MON trcstat_ptracer04_del2       =   3.6184285180452E-02
(PID.TID 0000.0001) %MON trcstat_ptracer05_max        =   5.6681910380803E-01
(PID.TID 0000.0001) %MON trcstat_ptracer05_min        =  -1.8212774684702E-02
(PID.TID 0000.0001) %MON trcstat_ptracer05_mean       =   2.0585902504695E-03
(PID.TID 0000.0001) %MON trcstat_ptracer05_sd         =   1.7194752361555E-02
(PID.TID 0000.0001) %MON trcstat_ptracer05_del2       =   1.1461277942175E-04
(PID.TID 0000.0001) %MON trcstat_ptracer06_max        =   9.0691056609285E+00
(PID.TID 0000.0001) %MON trcstat_ptracer06_min        =  -2.9140439495523E-01
(PID.TID 0000.0001) %MON trcstat_ptracer06_mean       =   3.2937444007510E-02
(PID.TID 0000.0001) %MON trcstat_ptracer06_sd         =   2.7511603778489E-01
(PID.TID 0000.0001) %MON trcstat_ptracer06_del2       =   1.8338044707480E-03
(PID.TID 0000.0001) %MON trcstat_ptracer07_max        =   5.6681909683065E-04
(PID.TID 0000.0001) %MON trcstat_ptracer07_min        =  -1.8212774582623E-05
(PID.TID 0000.0001) %MON trcstat_ptracer07_mean       =   2.0585902490436E-06
(PID.TID 0000.0001) %MON trcstat_ptracer07_sd         =   1.7194752333993E-05
(PID.TID 0000.0001) %MON trcstat_ptracer07_del2       =   1.1461277949910E-07
(PID.TID 0000.0001) %MON trcstat_ptracer08_max        =   5.5131044204087E-02
(PID.TID 0000.0001) %MON trcstat_ptracer08_min        =  -4.0823015111513E-03
(PID.TID 0000.0001) %MON trcstat_ptracer08_mean       =   3.9190304630972E-05
(PID.TID 0000.0001) %MON trcstat_ptracer08_sd         =   7.8360089100539E-04
(PID.TID 0000.0001) %MON trcstat_ptracer08_del2       =   7.9062360900574E-06
(PID.TID 0000.0001) %MON trcstat_ptracer09_max        =   8.8209670726539E-01
(PID.TID 0000.0001) %MON trcstat_ptracer09_min        =  -6.5316824178421E-02
(PID.TID 0000.0001) %MON trcstat_ptracer09_mean       =   6.2704487409856E-04
(PID.TID 0000.0001) %MON trcstat_ptracer09_sd         =   1.2537614256088E-02
(PID.TID 0000.0001) %MON trcstat_ptracer09_del2       =   1.2649977744092E-04
(PID.TID 0000.0001) %MON trcstat_ptracer10_max        =   5.5131044407442E-05
(PID.TID 0000.0001) %MON trcstat_ptracer10_min        =  -4.0823015584399E-06
(PID.TID 0000.0001) %MON trcstat_ptracer10_mean       =   3.9190304690809E-08
(PID.TID 0000.0001) %MON trcstat_ptracer10_sd         =   7.8360089419513E-07
(PID.TID 0000.0001) %MON trcstat_ptracer10_del2       =   7.9062362500886E-09
(PID.TID 0000.0001) %MON trcstat_ptracer11_max        =   1.9112780812560E-02
(PID.TID 0000.0001) %MON trcstat_ptracer11_min        =  -1.2039220018667E-03
(PID.TID 0000.0001) %MON trcstat_ptracer11_mean       =   6.9562561770377E-06
(PID.TID 0000.0001) %MON trcstat_ptracer11_sd         =   1.9378715789204E-04
(PID.TID 0000.0001) %MON trcstat_ptracer11_del2       =   2.3283905672047E-06
(PID.TID 0000.0001) %MON trcstat_ptracer12_max        =   1.4613528198787E-01
(PID.TID 0000.0001) %MON trcstat_ptracer12_min        =  -1.2613277648545E-02
(PID.TID 0000.0001) %MON trcstat_ptracer12_mean       =   7.0244461440983E-05
(PID.TID 0000.0001) %MON trcstat_ptracer12_sd         =   1.6980673082705E-03
(PID.TID 0000.0001) %MON trcstat_ptracer12_del2       =   2.1117836066507E-05
(PID.TID 0000.0001) %MON trcstat_ptracer13_max        =   2.3381645118058E+00
(PID.TID 0000.0001) %MON trcstat_ptracer13_min        =  -2.0181244237672E-01
(PID.TID 0000.0001) %MON trcstat_ptracer13_mean       =   1.1239113830604E-03
(PID.TID 0000.0001) %MON trcstat_ptracer13_sd         =   2.7169076932329E-02
(PID.TID 0000.0001) %MON trcstat_ptracer13_del2       =   3.3788537706411E-04
(PID.TID 0000.0001) %MON trcstat_ptracer14_max        =   1.4613529081895E-04
(PID.TID 0000.0001) %MON trcstat_ptracer14_min        =  -1.2613277328651E-05
(PID.TID 0000.0001) %MON trcstat_ptracer14_mean       =   7.0244461699469E-08
(PID.TID 0000.0001) %MON trcstat_ptracer14_sd         =   1.6980673262113E-06
(PID.TID 0000.0001) %MON trcstat_ptracer14_del2       =   2.1117836263599E-08
(PID.TID 0000.0001) %MON trcstat_ptracer15_max        =   9.2657468890487E-01
(PID.TID 0000.0001) %MON trcstat_ptracer15_min        =  -3.7233161352747E-02
(PID.TID 0000.0001) %MON trcstat_ptracer15_mean       =   4.1791745699248E-04
(PID.TID 0000.0001) %MON trcstat_ptracer15_sd         =   9.9458547033031E-03
(PID.TID 0000.0001) %MON trcstat_ptracer15_del2       =   1.4004942729984E-04
(PID.TID 0000.0001) %MON trcstat_ptracer16_max        =   1.3490985019895E-01
(PID.TID 0000.0001) %MON trcstat_ptracer16_min        =  -4.9290056933857E-03
(PID.TID 0000.0001) %MON trcstat_ptracer16_mean       =   6.2264353613989E-04
(PID.TID 0000.0001) %MON trcstat_ptracer16_sd         =   1.6592426445997E-03
(PID.TID 0000.0001) %MON trcstat_ptracer16_del2       =   1.5184081667523E-05
(PID.TID 0000.0001) %MON trcstat_ptracer17_max        =   2.1592674864274E+00
(PID.TID 0000.0001) %MON trcstat_ptracer17_min        =  -7.8864023958697E-02
(PID.TID 0000.0001) %MON trcstat_ptracer17_mean       =   9.9895139676232E-03
(PID.TID 0000.0001) %MON trcstat_ptracer17_sd         =   2.6625366414265E-02
(PID.TID 0000.0001) %MON trcstat_ptracer17_del2       =   2.4332733155796E-04
(PID.TID 0000.0001) %MON trcstat_ptracer18_max        =   1.3495421313545E-04
(PID.TID 0000.0001) %MON trcstat_ptracer18_min        =  -4.9290014065744E-06
(PID.TID 0000.0001) %MON trcstat_ptracer18_mean       =   6.2434462265505E-07
(PID.TID 0000.0001) %MON trcstat_ptracer18_sd         =   1.6640853913202E-06
(PID.TID 0000.0001) %MON trcstat_ptracer18_del2       =   1.5207958158235E-08
(PID.TID 0000.0001) %MON trcstat_ptracer19_max        =   1.9592059046837E+01
(PID.TID 0000.0001) %MON trcstat_ptracer19_min        =  -2.8977735927484E-01
(PID.TID 0000.0001) %MON trcstat_ptracer19_mean       =   1.3462111046212E-01
(PID.TID 0000.0001) %MON trcstat_ptracer19_sd         =   3.4080965584097E-01
(PID.TID 0000.0001) %MON trcstat_ptracer19_del2       =   2.0126797236190E-03
(PID.TID 0000.0001) %MON trcstat_ptracer20_max        =   3.2581526025193E-01
(PID.TID 0000.0001) %MON trcstat_ptracer20_min        =  -2.8749958309429E-02
(PID.TID 0000.0001) %MON trcstat_ptracer20_mean       =   5.1691145524065E-04
(PID.TID 0000.0001) %MON trcstat_ptracer20_sd         =   5.8944200627613E-03
(PID.TID 0000.0001) %MON trcstat_ptracer20_del2       =   6.6500700055811E-05
(PID.TID 0000.0001) %MON trcstat_ptracer21_max        =   8.5224319432071E-01
(PID.TID 0000.0001) %MON trcstat_ptracer21_min        =  -1.2480064016080E-01
(PID.TID 0000.0001) %MON trcstat_ptracer21_mean       =   3.2409824312846E-03
(PID.TID 0000.0001) %MON trcstat_ptracer21_sd         =   2.2810742210944E-02
(PID.TID 0000.0001) %MON trcstat_ptracer21_del2       =   2.1758080471769E-04
(PID.TID 0000.0001) %MON trcstat_ptracer22_max        =   1.7306895284269E-01
(PID.TID 0000.0001) %MON trcstat_ptracer22_min        =  -5.0718171805370E-02
(PID.TID 0000.0001) %MON trcstat_ptracer22_mean       =   6.9411857587234E-05
(PID.TID 0000.0001) %MON trcstat_ptracer22_sd         =   1.9198435182197E-03
(PID.TID 0000.0001) %MON trcstat_ptracer22_del2       =   4.2683505363220E-05
(PID.TID 0000.0001) %MON trcstat_ptracer23_max        =   1.0280708640757E-01
(PID.TID 0000.0001) %MON trcstat_ptracer23_min        =  -2.9799736272647E-02
(PID.TID 0000.0001) %MON trcstat_ptracer23_mean       =   3.2260283837071E-05
(PID.TID 0000.0001) %MON trcstat_ptracer23_sd         =   7.7789487678829E-04
(PID.TID 0000.0001) %MON trcstat_ptracer23_del2       =   2.0245223279370E-05
(PID.TID 0000.0001) %MON trcstat_ptracer24_max        =   1.4115849391235E-01
(PID.TID 0000.0001) %MON trcstat_ptracer24_min        =  -2.4568649245256E-02
(PID.TID 0000.0001) %MON trcstat_ptracer24_mean       =   3.2682199931041E-05
(PID.TID 0000.0001) %MON trcstat_ptracer24_sd         =   7.1854450992799E-04
(PID.TID 0000.0001) %MON trcstat_ptracer24_del2       =   1.4980006159725E-05
(PID.TID 0000.0001) %MON trcstat_ptracer25_max        =   2.2004028576988E-03
(PID.TID 0000.0001) %MON trcstat_ptracer25_min        =  -7.3736576238125E-04
(PID.TID 0000.0001) %MON trcstat_ptracer25_mean       =   1.2605054170778E-07
(PID.TID 0000.0001) %MON trcstat_ptracer25_sd         =   1.4878081422488E-05
(PID.TID 0000.0001) %MON trcstat_ptracer25_del2       =   1.9742080532976E-07
(PID.TID 0000.0001) %MON trcstat_ptracer26_max        =   2.6512966444284E-02
(PID.TID 0000.0001) %MON trcstat_ptracer26_min        =  -2.0293443753114E-03
(PID.TID 0000.0001) %MON trcstat_ptracer26_mean       =   6.9632792409762E-05
(PID.TID 0000.0001) %MON trcstat_ptracer26_sd         =   7.6973857151448E-04
(PID.TID 0000.0001) %MON trcstat_ptracer26_del2       =   5.2224466962480E-06
(PID.TID 0000.0001) %MON trcstat_ptracer27_max        =   6.3110485467416E+00
(PID.TID 0000.0001) %MON trcstat_ptracer27_min        =  -3.0432701455775E+00
(PID.TID 0000.0001) %MON trcstat_ptracer27_mean       =   1.4945367990545E-03
(PID.TID 0000.0001) %MON trcstat_ptracer27_sd         =   4.9506856083937E-02
(PID.TID 0000.0001) %MON trcstat_ptracer27_del2       =   1.2772047886857E-03
(PID.TID 0000.0001) %MON trcstat_ptracer28_max        =   3.3715847745769E+00
(PID.TID 0000.0001) %MON trcstat_ptracer28_min        =  -1.7880031200929E+00
(PID.TID 0000.0001) %MON trcstat_ptracer28_mean       =   7.3132497175849E-04
(PID.TID 0000.0001) %MON trcstat_ptracer28_sd         =   2.0310600118652E-02
(PID.TID 0000.0001) %MON trcstat_ptracer28_del2       =   6.0196960265457E-04
(PID.TID 0000.0001) %MON trcstat_ptracer29_max        =   9.0162173314345E-01
(PID.TID 0000.0001) %MON trcstat_ptracer29_min        =  -5.8964758209246E-01
(PID.TID 0000.0001) %MON trcstat_ptracer29_mean       =   1.8262077735029E-04
(PID.TID 0000.0001) %MON trcstat_ptracer29_sd         =   5.1855920256733E-03
(PID.TID 0000.0001) %MON trcstat_ptracer29_del2       =   1.2763117021368E-04
(PID.TID 0000.0001) %MON trcstat_ptracer30_max        =   7.0650379026973E-03
(PID.TID 0000.0001) %MON trcstat_ptracer30_min        =  -1.7712100002193E-02
(PID.TID 0000.0001) %MON trcstat_ptracer30_mean       =  -2.9117674410186E-07
(PID.TID 0000.0001) %MON trcstat_ptracer30_sd         =   9.3018759795794E-05
(PID.TID 0000.0001) %MON trcstat_ptracer30_del2       =   1.4285392894647E-06
(PID.TID 0000.0001) %MON trcstat_ptracer31_max        =   3.8554650568681E-01
(PID.TID 0000.0001) %MON trcstat_ptracer31_min        =  -4.8698345504963E-02
(PID.TID 0000.0001) %MON trcstat_ptracer31_mean       =   6.8357488610512E-04
(PID.TID 0000.0001) %MON trcstat_ptracer31_sd         =   8.4411904828276E-03
(PID.TID 0000.0001) %MON trcstat_ptracer31_del2       =   7.2242355592525E-05
(PID.TID 0000.0001) %MON trcstat_ptracer32_max        =   2.5072843972970E+03
(PID.TID 0000.0001) %MON trcstat_ptracer32_min        =   1.5726620493962E+03
(PID.TID 0000.0001) %MON trcstat_ptracer32_mean       =   2.3412050548319E+03
(PID.TID 0000.0001) %MON trcstat_ptracer32_sd         =   7.0734427991421E+01
(PID.TID 0000.0001) %MON trcstat_ptracer32_del2       =   8.7718788462420E-02
(PID.TID 0000.0001) %MON trcstat_ptracer33_max        =   1.0076572523765E+02
(PID.TID 0000.0001) %MON trcstat_ptracer33_min        =  -4.4778469901299E+00
(PID.TID 0000.0001) %MON trcstat_ptracer33_mean       =   4.9149006244906E-01
(PID.TID 0000.0001) %MON trcstat_ptracer33_sd         =   3.4607785123664E+00
(PID.TID 0000.0001) %MON trcstat_ptracer33_del2       =   1.9351228104085E-02
(PID.TID 0000.0001) %MON trcstat_ptracer34_max        =   2.6073280567658E+01
(PID.TID 0000.0001) %MON trcstat_ptracer34_min        =  -6.2008429394866E-01
(PID.TID 0000.0001) %MON trcstat_ptracer34_mean       =   1.8754580676901E-01
(PID.TID 0000.0001) %MON trcstat_ptracer34_sd         =   3.2741087006971E-01
(PID.TID 0000.0001) %MON trcstat_ptracer34_del2       =   3.0600493645214E-03
(PID.TID 0000.0001) %MON trcstat_ptracer35_max        =   3.7771176295683E+00
(PID.TID 0000.0001) %MON trcstat_ptracer35_min        =  -3.1578643037124E-02
(PID.TID 0000.0001) %MON trcstat_ptracer35_mean       =   2.6566332101273E-02
(PID.TID 0000.0001) %MON trcstat_ptracer35_sd         =   5.3435827976904E-02
(PID.TID 0000.0001) %MON trcstat_ptracer35_del2       =   4.3721825110926E-04
(PID.TID 0000.0001) %MON trcstat_ptracer36_max        =   2.7204212940335E+03
(PID.TID 0000.0001) %MON trcstat_ptracer36_min        =   1.6416207831197E+03
(PID.TID 0000.0001) %MON trcstat_ptracer36_mean       =   2.4566175584269E+03
(PID.TID 0000.0001) %MON trcstat_ptracer36_sd         =   5.3614258371124E+01
(PID.TID 0000.0001) %MON trcstat_ptracer36_del2       =   6.6171103034714E-02
(PID.TID 0000.0001) %MON trcstat_ptracer37_max        =   4.6467245148826E+02
(PID.TID 0000.0001) %MON trcstat_ptracer37_min        =  -5.3344281539093E+01
(PID.TID 0000.0001) %MON trcstat_ptracer37_mean       =   1.8800691557652E+02
(PID.TID 0000.0001) %MON trcstat_ptracer37_sd         =   5.4472024009483E+01
(PID.TID 0000.0001) %MON trcstat_ptracer37_del2       =   8.9651458087517E-02
(PID.TID 0000.0001) %MON trcstat_ptracer38_max        =   6.6157252747742E+00
(PID.TID 0000.0001) %MON trcstat_ptracer38_min        =  -4.8987617388837E-01
(PID.TID 0000.0001) %MON trcstat_ptracer38_mean       =   4.7028365716321E-03
(PID.TID 0000.0001) %MON trcstat_ptracer38_sd         =   9.4032107562036E-02
(PID.TID 0000.0001) %MON trcstat_ptracer38_del2       =   9.4874834595510E-04
(PID.TID 0000.0001) %MON trcstat_ptracer39_max        =   1.7536234195399E+01
(PID.TID 0000.0001) %MON trcstat_ptracer39_min        =  -1.5135932508141E+00
(PID.TID 0000.0001) %MON trcstat_ptracer39_mean       =   8.4293353863106E-03
(PID.TID 0000.0001) %MON trcstat_ptracer39_sd         =   2.0376807777723E-01
(PID.TID 0000.0001) %MON trcstat_ptracer39_del2       =   2.5341403295281E-03
(PID.TID 0000.0001) // =======================================================
(PID.TID 0000.0001) // End MONITOR ptracers field statistics
(PID.TID 0000.0001) // =======================================================
(PID.TID 0000.0001)  MDS_WRITE_FIELD: it,rec,kS,kL,kH=       4     1  15   1  15 file=pickup_cd.ckptA
(PID.TID 0000.0001)  MDS_WRITE_FIELD: it,rec,kS,kL,kH=       4     2  15   1  15 file=pickup_cd.ckptA
(PID.TID 0000.0001)  MDS_WRITE_FIELD: it,rec,kS,kL,kH=       4     3  15   1  15 file=pickup_cd.ckptA
(PID.TID 0000.0001)  MDS_WRITE_FIELD: it,rec,kS,kL,kH=       4     4  15   1  15 file=pickup_cd.ckptA
(PID.TID 0000.0001)  MDS_WRITE_FIELD: it,rec,kS,kL,kH=       4    61   1   1   1 file=pickup_cd.ckptA
(PID.TID 0000.0001)  MDS_WRITE_FIELD: it,rec,kS,kL,kH=       4     1  15   1  15 file=pickup_ggl90.ckptA
(PID.TID 0000.0001)  MDS_WRITE_FIELD: it,rec,kS,kL,kH=       4    -1  15   1  15 file=pickup_ptracers.ckptA
(PID.TID 0000.0001)  MDS_WRITE_FIELD: it,rec,kS,kL,kH=       4    -2  15   1  15 file=pickup_ptracers.ckptA
(PID.TID 0000.0001)  MDS_WRITE_FIELD: it,rec,kS,kL,kH=       4    -3  15   1  15 file=pickup_ptracers.ckptA
(PID.TID 0000.0001)  MDS_WRITE_FIELD: it,rec,kS,kL,kH=       4    -4  15   1  15 file=pickup_ptracers.ckptA
(PID.TID 0000.0001)  MDS_WRITE_FIELD: it,rec,kS,kL,kH=       4    -5  15   1  15 file=pickup_ptracers.ckptA
(PID.TID 0000.0001)  MDS_WRITE_FIELD: it,rec,kS,kL,kH=       4    -6  15   1  15 file=pickup_ptracers.ckptA
(PID.TID 0000.0001)  MDS_WRITE_FIELD: it,rec,kS,kL,kH=       4    -7  15   1  15 file=pickup_ptracers.ckptA
(PID.TID 0000.0001)  MDS_WRITE_FIELD: it,rec,kS,kL,kH=       4    -8  15   1  15 file=pickup_ptracers.ckptA
(PID.TID 0000.0001)  MDS_WRITE_FIELD: it,rec,kS,kL,kH=       4    -9  15   1  15 file=pickup_ptracers.ckptA
(PID.TID 0000.0001)  MDS_WRITE_FIELD: it,rec,kS,kL,kH=       4   -10  15   1  15 file=pickup_ptracers.ckptA
(PID.TID 0000.0001)  MDS_WRITE_FIELD: it,rec,kS,kL,kH=       4   -11  15   1  15 file=pickup_ptracers.ckptA
(PID.TID 0000.0001)  MDS_WRITE_FIELD: it,rec,kS,kL,kH=       4   -12  15   1  15 file=pickup_ptracers.ckptA
(PID.TID 0000.0001)  MDS_WRITE_FIELD: it,rec,kS,kL,kH=       4   -13  15   1  15 file=pickup_ptracers.ckptA
(PID.TID 0000.0001)  MDS_WRITE_FIELD: it,rec,kS,kL,kH=       4   -14  15   1  15 file=pickup_ptracers.ckptA
(PID.TID 0000.0001)  MDS_WRITE_FIELD: it,rec,kS,kL,kH=       4   -15  15   1  15 file=pickup_ptracers.ckptA
(PID.TID 0000.0001)  MDS_WRITE_FIELD: it,rec,kS,kL,kH=       4   -16  15   1  15 file=pickup_ptracers.ckptA
(PID.TID 0000.0001)  MDS_WRITE_FIELD: it,rec,kS,kL,kH=       4   -17  15   1  15 file=pickup_ptracers.ckptA
(PID.TID 0000.0001)  MDS_WRITE_FIELD: it,rec,kS,kL,kH=       4   -18  15   1  15 file=pickup_ptracers.ckptA
(PID.TID 0000.0001)  MDS_WRITE_FIELD: it,rec,kS,kL,kH=       4   -19  15   1  15 file=pickup_ptracers.ckptA
(PID.TID 0000.0001)  MDS_WRITE_FIELD: it,rec,kS,kL,kH=       4   -20  15   1  15 file=pickup_ptracers.ckptA
(PID.TID 0000.0001)  MDS_WRITE_FIELD: it,rec,kS,kL,kH=       4   -21  15   1  15 file=pickup_ptracers.ckptA
(PID.TID 0000.0001)  MDS_WRITE_FIELD: it,rec,kS,kL,kH=       4   -22  15   1  15 file=pickup_ptracers.ckptA
(PID.TID 0000.0001)  MDS_WRITE_FIELD: it,rec,kS,kL,kH=       4   -23  15   1  15 file=pickup_ptracers.ckptA
(PID.TID 0000.0001)  MDS_WRITE_FIELD: it,rec,kS,kL,kH=       4   -24  15   1  15 file=pickup_ptracers.ckptA
(PID.TID 0000.0001)  MDS_WRITE_FIELD: it,rec,kS,kL,kH=       4   -25  15   1  15 file=pickup_ptracers.ckptA
(PID.TID 0000.0001)  MDS_WRITE_FIELD: it,rec,kS,kL,kH=       4   -26  15   1  15 file=pickup_ptracers.ckptA
(PID.TID 0000.0001)  MDS_WRITE_FIELD: it,rec,kS,kL,kH=       4   -27  15   1  15 file=pickup_ptracers.ckptA
(PID.TID 0000.0001)  MDS_WRITE_FIELD: it,rec,kS,kL,kH=       4   -28  15   1  15 file=pickup_ptracers.ckptA
(PID.TID 0000.0001)  MDS_WRITE_FIELD: it,rec,kS,kL,kH=       4   -29  15   1  15 file=pickup_ptracers.ckptA
(PID.TID 0000.0001)  MDS_WRITE_FIELD: it,rec,kS,kL,kH=       4   -30  15   1  15 file=pickup_ptracers.ckptA
(PID.TID 0000.0001)  MDS_WRITE_FIELD: it,rec,kS,kL,kH=       4   -31  15   1  15 file=pickup_ptracers.ckptA
(PID.TID 0000.0001)  MDS_WRITE_FIELD: it,rec,kS,kL,kH=       4   -32  15   1  15 file=pickup_ptracers.ckptA
(PID.TID 0000.0001)  MDS_WRITE_FIELD: it,rec,kS,kL,kH=       4   -33  15   1  15 file=pickup_ptracers.ckptA
(PID.TID 0000.0001)  MDS_WRITE_FIELD: it,rec,kS,kL,kH=       4   -34  15   1  15 file=pickup_ptracers.ckptA
(PID.TID 0000.0001)  MDS_WRITE_FIELD: it,rec,kS,kL,kH=       4   -35  15   1  15 file=pickup_ptracers.ckptA
(PID.TID 0000.0001)  MDS_WRITE_FIELD: it,rec,kS,kL,kH=       4   -36  15   1  15 file=pickup_ptracers.ckptA
(PID.TID 0000.0001)  MDS_WRITE_FIELD: it,rec,kS,kL,kH=       4   -37  15   1  15 file=pickup_ptracers.ckptA
(PID.TID 0000.0001)  MDS_WRITE_FIELD: it,rec,kS,kL,kH=       4   -38  15   1  15 file=pickup_ptracers.ckptA
(PID.TID 0000.0001)  MDS_WRITE_FIELD: it,rec,kS,kL,kH=       4   -39  15   1  15 file=pickup_ptracers.ckptA
(PID.TID 0000.0001)  MDS_WRITE_FIELD: it,rec,kS,kL,kH=       4    -1   1   1   1 file=pickup_dic.ckptA
(PID.TID 0000.0001)  MDS_WRITE_FIELD: it,rec,kS,kL,kH=       4    -1   7   1   1 file=pickup_seaice.ckptA
(PID.TID 0000.0001)  MDS_WRITE_FIELD: it,rec,kS,kL,kH=       4    -2   1   1   1 file=pickup_seaice.ckptA
(PID.TID 0000.0001)  MDS_WRITE_FIELD: it,rec,kS,kL,kH=       4    -3   1   1   1 file=pickup_seaice.ckptA
(PID.TID 0000.0001)  MDS_WRITE_FIELD: it,rec,kS,kL,kH=       4    -4   1   1   1 file=pickup_seaice.ckptA
(PID.TID 0000.0001)  MDS_WRITE_FIELD: it,rec,kS,kL,kH=       4    -5   1   1   1 file=pickup_seaice.ckptA
(PID.TID 0000.0001)  MDS_WRITE_FIELD: it,rec,kS,kL,kH=       4    -6   1   1   1 file=pickup_seaice.ckptA
(PID.TID 0000.0001)  MDS_WRITE_FIELD: it,rec,kS,kL,kH=       4    -7   1   1   1 file=pickup_seaice.ckptA
(PID.TID 0000.0001)  MDS_WRITE_FIELD: it,rec,kS,kL,kH=       4    -8   1   1   1 file=pickup_seaice.ckptA
(PID.TID 0000.0001)  MDS_WRITE_FIELD: it,rec,kS,kL,kH=       4    -9   1   1   1 file=pickup_seaice.ckptA
(PID.TID 0000.0001)  MDS_WRITE_FIELD: it,rec,kS,kL,kH=       4    -1  15   1  15 file=pickup.ckptA
(PID.TID 0000.0001)  MDS_WRITE_FIELD: it,rec,kS,kL,kH=       4    -2  15   1  15 file=pickup.ckptA
(PID.TID 0000.0001)  MDS_WRITE_FIELD: it,rec,kS,kL,kH=       4    -3  15   1  15 file=pickup.ckptA
(PID.TID 0000.0001)  MDS_WRITE_FIELD: it,rec,kS,kL,kH=       4    -4  15   1  15 file=pickup.ckptA
(PID.TID 0000.0001)  MDS_WRITE_FIELD: it,rec,kS,kL,kH=       4    -5  15   1  15 file=pickup.ckptA
(PID.TID 0000.0001)  MDS_WRITE_FIELD: it,rec,kS,kL,kH=       4    -6  15   1  15 file=pickup.ckptA
(PID.TID 0000.0001)  MDS_WRITE_FIELD: it,rec,kS,kL,kH=       4    -7  15   1  15 file=pickup.ckptA
(PID.TID 0000.0001)  MDS_WRITE_FIELD: it,rec,kS,kL,kH=       4    -8  15   1  15 file=pickup.ckptA
(PID.TID 0000.0001)  MDS_WRITE_FIELD: it,rec,kS,kL,kH=       4    -9  15   1  15 file=pickup.ckptA
(PID.TID 0000.0001)  MDS_WRITE_FIELD: it,rec,kS,kL,kH=       4   -10  15   1  15 file=pickup.ckptA
(PID.TID 0000.0001)  MDS_WRITE_FIELD: it,rec,kS,kL,kH=       4   -11  15   1  15 file=pickup.ckptA
(PID.TID 0000.0001)  MDS_WRITE_FIELD: it,rec,kS,kL,kH=       4   -12  15   1  15 file=pickup.ckptA
(PID.TID 0000.0001)  MDS_WRITE_FIELD: it,rec,kS,kL,kH=       4  -181   1   1   1 file=pickup.ckptA
(PID.TID 0000.0001)  MDS_WRITE_FIELD: it,rec,kS,kL,kH=       4  -182   1   1   1 file=pickup.ckptA
(PID.TID 0000.0001)  MDS_WRITE_FIELD: it,rec,kS,kL,kH=       4  -183   1   1   1 file=pickup.ckptA
(PID.TID 0000.0001) %CHECKPOINT         4 ckptA
(PID.TID 0000.0001)   Seconds in section "ALL                    [THE_MODEL_MAIN]":
(PID.TID 0000.0001)           User time:   4.7733918654266745
(PID.TID 0000.0001)         System time:  0.24838399514555931
(PID.TID 0000.0001)     Wall clock time:   5.0533778667449951
(PID.TID 0000.0001)          No. starts:           1
(PID.TID 0000.0001)           No. stops:           1
(PID.TID 0000.0001)   Seconds in section "INITIALISE_FIXED       [THE_MODEL_MAIN]":
(PID.TID 0000.0001)           User time:  0.38919900846667588
(PID.TID 0000.0001)         System time:   2.7540999464690685E-002
(PID.TID 0000.0001)     Wall clock time:  0.41993880271911621
(PID.TID 0000.0001)          No. starts:           1
(PID.TID 0000.0001)           No. stops:           1
(PID.TID 0000.0001)   Seconds in section "THE_MAIN_LOOP          [THE_MODEL_MAIN]":
(PID.TID 0000.0001)           User time:   4.3841691315174103
(PID.TID 0000.0001)         System time:  0.22083699516952038
(PID.TID 0000.0001)     Wall clock time:   4.6334140300750732
(PID.TID 0000.0001)          No. starts:           1
(PID.TID 0000.0001)           No. stops:           1
(PID.TID 0000.0001)   Seconds in section "INITIALISE_VARIA    [THE_MAIN_LOOP]":
(PID.TID 0000.0001)           User time:  0.18970599770545959
(PID.TID 0000.0001)         System time:  0.12188100628554821
(PID.TID 0000.0001)     Wall clock time:  0.32317709922790527
(PID.TID 0000.0001)          No. starts:           1
(PID.TID 0000.0001)           No. stops:           1
(PID.TID 0000.0001)   Seconds in section "MAIN LOOP           [THE_MAIN_LOOP]":
(PID.TID 0000.0001)           User time:   4.1944419741630554
(PID.TID 0000.0001)         System time:   9.8952993750572205E-002
(PID.TID 0000.0001)     Wall clock time:   4.3102161884307861
(PID.TID 0000.0001)          No. starts:           1
(PID.TID 0000.0001)           No. stops:           1
(PID.TID 0000.0001)   Seconds in section "MAIN_DO_LOOP        [THE_MAIN_LOOP]":
(PID.TID 0000.0001)           User time:   4.1944118738174438
(PID.TID 0000.0001)         System time:   9.8951995372772217E-002
(PID.TID 0000.0001)     Wall clock time:   4.3101837635040283
(PID.TID 0000.0001)          No. starts:           4
(PID.TID 0000.0001)           No. stops:           4
(PID.TID 0000.0001)   Seconds in section "FORWARD_STEP        [MAIN_DO_LOOP]":
(PID.TID 0000.0001)           User time:   4.1943660974502563
(PID.TID 0000.0001)         System time:   9.8949015140533447E-002
(PID.TID 0000.0001)     Wall clock time:   4.3101358413696289
(PID.TID 0000.0001)          No. starts:           4
(PID.TID 0000.0001)           No. stops:           4
(PID.TID 0000.0001)   Seconds in section "DO_STATEVARS_DIAGS  [FORWARD_STEP]":
(PID.TID 0000.0001)           User time:   4.3281793594360352E-002
(PID.TID 0000.0001)         System time:   4.7899782657623291E-004
(PID.TID 0000.0001)     Wall clock time:   4.3778657913208008E-002
(PID.TID 0000.0001)          No. starts:           8
(PID.TID 0000.0001)           No. stops:           8
(PID.TID 0000.0001)   Seconds in section "LOAD_FIELDS_DRIVER  [FORWARD_STEP]":
(PID.TID 0000.0001)           User time:   5.3517103195190430E-002
(PID.TID 0000.0001)         System time:   2.7689933776855469E-003
(PID.TID 0000.0001)     Wall clock time:   5.6291341781616211E-002
(PID.TID 0000.0001)          No. starts:           4
(PID.TID 0000.0001)           No. stops:           4
(PID.TID 0000.0001)   Seconds in section "EXF_GETFORCING     [LOAD_FLDS_DRIVER]":
(PID.TID 0000.0001)           User time:   3.3864259719848633E-002
(PID.TID 0000.0001)         System time:   2.4309903383255005E-003
(PID.TID 0000.0001)     Wall clock time:   3.6302804946899414E-002
(PID.TID 0000.0001)          No. starts:           4
(PID.TID 0000.0001)           No. stops:           4
(PID.TID 0000.0001)   Seconds in section "EXTERNAL_FLDS_LOAD [LOAD_FLDS_DRIVER]":
(PID.TID 0000.0001)           User time:   3.8492679595947266E-004
(PID.TID 0000.0001)         System time:   9.9986791610717773E-006
(PID.TID 0000.0001)     Wall clock time:   3.9386749267578125E-004
(PID.TID 0000.0001)          No. starts:           4
(PID.TID 0000.0001)           No. stops:           4
(PID.TID 0000.0001)   Seconds in section "DO_ATMOSPHERIC_PHYS [FORWARD_STEP]":
(PID.TID 0000.0001)           User time:   2.4974346160888672E-005
(PID.TID 0000.0001)         System time:   7.0035457611083984E-006
(PID.TID 0000.0001)     Wall clock time:   3.2901763916015625E-005
(PID.TID 0000.0001)          No. starts:           4
(PID.TID 0000.0001)           No. stops:           4
(PID.TID 0000.0001)   Seconds in section "DO_OCEANIC_PHYS     [FORWARD_STEP]":
(PID.TID 0000.0001)           User time:  0.18405097723007202
(PID.TID 0000.0001)         System time:   2.3889988660812378E-003
(PID.TID 0000.0001)     Wall clock time:  0.18646216392517090
(PID.TID 0000.0001)          No. starts:           4
(PID.TID 0000.0001)           No. stops:           4
(PID.TID 0000.0001)   Seconds in section "SEAICE_MODEL    [DO_OCEANIC_PHYS]":
(PID.TID 0000.0001)           User time:   4.8846840858459473E-002
(PID.TID 0000.0001)         System time:   7.1501731872558594E-004
(PID.TID 0000.0001)     Wall clock time:   4.9563884735107422E-002
(PID.TID 0000.0001)          No. starts:           4
(PID.TID 0000.0001)           No. stops:           4
(PID.TID 0000.0001)   Seconds in section "SEAICE_DYNSOLVER   [SEAICE_MODEL]":
(PID.TID 0000.0001)           User time:   3.8713932037353516E-002
(PID.TID 0000.0001)         System time:   4.3600797653198242E-004
(PID.TID 0000.0001)     Wall clock time:   3.9155960083007812E-002
(PID.TID 0000.0001)          No. starts:           4
(PID.TID 0000.0001)           No. stops:           4
(PID.TID 0000.0001)   Seconds in section "GGL90_CALC [DO_OCEANIC_PHYS]":
(PID.TID 0000.0001)           User time:   4.1952371597290039E-002
(PID.TID 0000.0001)         System time:   1.2590140104293823E-003
(PID.TID 0000.0001)     Wall clock time:   4.3203353881835938E-002
(PID.TID 0000.0001)          No. starts:          16
(PID.TID 0000.0001)           No. stops:          16
(PID.TID 0000.0001)   Seconds in section "GCHEM_CALC_TENDENCY [FORWARD_STEP]":
(PID.TID 0000.0001)           User time:   2.3901462554931641E-005
(PID.TID 0000.0001)         System time:   0.0000000000000000
(PID.TID 0000.0001)     Wall clock time:   2.3841857910156250E-005
(PID.TID 0000.0001)          No. starts:           4
(PID.TID 0000.0001)           No. stops:           4
(PID.TID 0000.0001)   Seconds in section "THERMODYNAMICS      [FORWARD_STEP]":
(PID.TID 0000.0001)           User time:   3.0767690539360046
(PID.TID 0000.0001)         System time:   2.3809969425201416E-003
(PID.TID 0000.0001)     Wall clock time:   3.0793330669403076
(PID.TID 0000.0001)          No. starts:           4
(PID.TID 0000.0001)           No. stops:           4
(PID.TID 0000.0001)   Seconds in section "DYNAMICS            [FORWARD_STEP]":
(PID.TID 0000.0001)           User time:  0.12640714645385742
(PID.TID 0000.0001)         System time:   1.3450086116790771E-003
(PID.TID 0000.0001)     Wall clock time:  0.12775921821594238
(PID.TID 0000.0001)          No. starts:           4
(PID.TID 0000.0001)           No. stops:           4
(PID.TID 0000.0001)   Seconds in section "UPDATE_SURF_DR      [FORWARD_STEP]":
(PID.TID 0000.0001)           User time:   1.8570423126220703E-003
(PID.TID 0000.0001)         System time:   6.9886445999145508E-006
(PID.TID 0000.0001)     Wall clock time:   1.8649101257324219E-003
(PID.TID 0000.0001)          No. starts:           4
(PID.TID 0000.0001)           No. stops:           4
(PID.TID 0000.0001)   Seconds in section "SOLVE_FOR_PRESSURE  [FORWARD_STEP]":
(PID.TID 0000.0001)           User time:   1.1101126670837402E-002
(PID.TID 0000.0001)         System time:   9.8004937171936035E-005
(PID.TID 0000.0001)     Wall clock time:   1.1204957962036133E-002
(PID.TID 0000.0001)          No. starts:           4
(PID.TID 0000.0001)           No. stops:           4
(PID.TID 0000.0001)   Seconds in section "MOM_CORRECTION_STEP [FORWARD_STEP]":
(PID.TID 0000.0001)           User time:   2.7838945388793945E-003
(PID.TID 0000.0001)         System time:   5.9902667999267578E-006
(PID.TID 0000.0001)     Wall clock time:   2.7928352355957031E-003
(PID.TID 0000.0001)          No. starts:           4
(PID.TID 0000.0001)           No. stops:           4
(PID.TID 0000.0001)   Seconds in section "INTEGR_CONTINUITY   [FORWARD_STEP]":
(PID.TID 0000.0001)           User time:   2.0976066589355469E-003
(PID.TID 0000.0001)         System time:   3.0100345611572266E-006
(PID.TID 0000.0001)     Wall clock time:   2.1049976348876953E-003
(PID.TID 0000.0001)          No. starts:           4
(PID.TID 0000.0001)           No. stops:           4
(PID.TID 0000.0001)   Seconds in section "TRC_CORRECTION_STEP [FORWARD_STEP]":
(PID.TID 0000.0001)           User time:   2.4437904357910156E-005
(PID.TID 0000.0001)         System time:   3.0100345611572266E-006
(PID.TID 0000.0001)     Wall clock time:   2.8133392333984375E-005
(PID.TID 0000.0001)          No. starts:           4
(PID.TID 0000.0001)           No. stops:           4
(PID.TID 0000.0001)   Seconds in section "GCHEM_FORCING_SEP  [FORWARD_STEP]":
(PID.TID 0000.0001)           User time:  0.44792604446411133
(PID.TID 0000.0001)         System time:   2.4250000715255737E-003
(PID.TID 0000.0001)     Wall clock time:  0.45041894912719727
(PID.TID 0000.0001)          No. starts:           4
(PID.TID 0000.0001)           No. stops:           4
(PID.TID 0000.0001)   Seconds in section "BLOCKING_EXCHANGES  [FORWARD_STEP]":
(PID.TID 0000.0001)           User time:   3.2277226448059082E-002
(PID.TID 0000.0001)         System time:   2.8014183044433594E-005
(PID.TID 0000.0001)     Wall clock time:   3.2318115234375000E-002
(PID.TID 0000.0001)          No. starts:           4
(PID.TID 0000.0001)           No. stops:           4
(PID.TID 0000.0001)   Seconds in section "MONITOR             [FORWARD_STEP]":
(PID.TID 0000.0001)           User time:   3.0345797538757324E-002
(PID.TID 0000.0001)         System time:   2.1901726722717285E-004
(PID.TID 0000.0001)     Wall clock time:   3.0574321746826172E-002
(PID.TID 0000.0001)          No. starts:           4
(PID.TID 0000.0001)           No. stops:           4
(PID.TID 0000.0001)   Seconds in section "DO_THE_MODEL_IO     [FORWARD_STEP]":
(PID.TID 0000.0001)           User time:  0.15504837036132812
(PID.TID 0000.0001)         System time:   3.9135992527008057E-002
(PID.TID 0000.0001)     Wall clock time:  0.20608210563659668
(PID.TID 0000.0001)          No. starts:           4
(PID.TID 0000.0001)           No. stops:           4
(PID.TID 0000.0001)   Seconds in section "PTRACERS_RESET      [FORWARD_STEP]":
(PID.TID 0000.0001)           User time:   2.4795532226562500E-005
(PID.TID 0000.0001)         System time:   2.9951333999633789E-006
(PID.TID 0000.0001)     Wall clock time:   2.7179718017578125E-005
(PID.TID 0000.0001)          No. starts:           4
(PID.TID 0000.0001)           No. stops:           4
(PID.TID 0000.0001)   Seconds in section "DO_WRITE_PICKUP     [FORWARD_STEP]":
(PID.TID 0000.0001)           User time:   2.6278734207153320E-002
(PID.TID 0000.0001)         System time:   4.7552004456520081E-002
(PID.TID 0000.0001)     Wall clock time:   7.8517913818359375E-002
(PID.TID 0000.0001)          No. starts:           4
(PID.TID 0000.0001)           No. stops:           4
(PID.TID 0000.0001) // ======================================================
(PID.TID 0000.0001) // Tile <-> Tile communication statistics
(PID.TID 0000.0001) // ======================================================
(PID.TID 0000.0001) // o Tile number: 000001
(PID.TID 0000.0001) //         No. X exchanges =              0
(PID.TID 0000.0001) //            Max. X spins =              0
(PID.TID 0000.0001) //            Min. X spins =     1000000000
(PID.TID 0000.0001) //          Total. X spins =              0
(PID.TID 0000.0001) //            Avg. X spins =       0.00E+00
(PID.TID 0000.0001) //         No. Y exchanges =              0
(PID.TID 0000.0001) //            Max. Y spins =              0
(PID.TID 0000.0001) //            Min. Y spins =     1000000000
(PID.TID 0000.0001) //          Total. Y spins =              0
(PID.TID 0000.0001) //            Avg. Y spins =       0.00E+00
(PID.TID 0000.0001) // o Tile number: 000002
(PID.TID 0000.0001) //         No. X exchanges =              0
(PID.TID 0000.0001) //            Max. X spins =              0
(PID.TID 0000.0001) //            Min. X spins =     1000000000
(PID.TID 0000.0001) //          Total. X spins =              0
(PID.TID 0000.0001) //            Avg. X spins =       0.00E+00
(PID.TID 0000.0001) //         No. Y exchanges =              0
(PID.TID 0000.0001) //            Max. Y spins =              0
(PID.TID 0000.0001) //            Min. Y spins =     1000000000
(PID.TID 0000.0001) //          Total. Y spins =              0
(PID.TID 0000.0001) //            Avg. Y spins =       0.00E+00
(PID.TID 0000.0001) // o Tile number: 000003
(PID.TID 0000.0001) //         No. X exchanges =              0
(PID.TID 0000.0001) //            Max. X spins =              0
(PID.TID 0000.0001) //            Min. X spins =     1000000000
(PID.TID 0000.0001) //          Total. X spins =              0
(PID.TID 0000.0001) //            Avg. X spins =       0.00E+00
(PID.TID 0000.0001) //         No. Y exchanges =              0
(PID.TID 0000.0001) //            Max. Y spins =              0
(PID.TID 0000.0001) //            Min. Y spins =     1000000000
(PID.TID 0000.0001) //          Total. Y spins =              0
(PID.TID 0000.0001) //            Avg. Y spins =       0.00E+00
(PID.TID 0000.0001) // o Tile number: 000004
(PID.TID 0000.0001) //         No. X exchanges =              0
(PID.TID 0000.0001) //            Max. X spins =              0
(PID.TID 0000.0001) //            Min. X spins =     1000000000
(PID.TID 0000.0001) //          Total. X spins =              0
(PID.TID 0000.0001) //            Avg. X spins =       0.00E+00
(PID.TID 0000.0001) //         No. Y exchanges =              0
(PID.TID 0000.0001) //            Max. Y spins =              0
(PID.TID 0000.0001) //            Min. Y spins =     1000000000
(PID.TID 0000.0001) //          Total. Y spins =              0
(PID.TID 0000.0001) //            Avg. Y spins =       0.00E+00
(PID.TID 0000.0001) // o Thread number: 000001
(PID.TID 0000.0001) //            No. barriers =          15098
(PID.TID 0000.0001) //      Max. barrier spins =              1
(PID.TID 0000.0001) //      Min. barrier spins =              1
(PID.TID 0000.0001) //     Total barrier spins =          15098
(PID.TID 0000.0001) //      Avg. barrier spins =       1.00E+00
PROGRAM MAIN: Execution ended Normally
