(PID.TID 0000.0001) 
(PID.TID 0000.0001) // ======================================================
(PID.TID 0000.0001) //                      MITgcm UV
(PID.TID 0000.0001) //                      =========
(PID.TID 0000.0001) // ======================================================
(PID.TID 0000.0001) // execution environment starting up...
(PID.TID 0000.0001) 
(PID.TID 0000.0001) // MITgcmUV version:  checkpoint66l
(PID.TID 0000.0001) // Build user:        dmenemen
(PID.TID 0000.0001) // Build host:        r11i2n12
(PID.TID 0000.0001) // Build date:        Fri Mar  6 17:47:57 PST 2020
(PID.TID 0000.0001) 
(PID.TID 0000.0001) // =======================================================
(PID.TID 0000.0001) // Execution Environment parameter file "eedata"
(PID.TID 0000.0001) // =======================================================
(PID.TID 0000.0001) ># Example "eedata" file
(PID.TID 0000.0001) ># Lines beginning "#" are comments
(PID.TID 0000.0001) ># nTx - No. threads per process in X
(PID.TID 0000.0001) ># nTy - No. threads per process in Y
(PID.TID 0000.0001) > &EEPARMS
(PID.TID 0000.0001) > useCubedSphereExchange=.TRUE.,
(PID.TID 0000.0001) > nTx=1,
(PID.TID 0000.0001) > nTy=1,
(PID.TID 0000.0001) > /
(PID.TID 0000.0001) ># Note: Some systems use & as the
(PID.TID 0000.0001) ># namelist terminator. Other systems
(PID.TID 0000.0001) ># use a / character (as shown here).
(PID.TID 0000.0001) 
(PID.TID 0000.0001) // =======================================================
(PID.TID 0000.0001) // Computational Grid Specification ( see files "SIZE.h" )
(PID.TID 0000.0001) //                                  ( and "eedata"       )
(PID.TID 0000.0001) // =======================================================
(PID.TID 0000.0001)      nPx =  767 ; /* No. processes in X */
(PID.TID 0000.0001)      nPy =    1 ; /* No. processes in Y */
(PID.TID 0000.0001)      nSx =    1 ; /* No. tiles in X per process */
(PID.TID 0000.0001)      nSy =    1 ; /* No. tiles in Y per process */
(PID.TID 0000.0001)      sNx =   30 ; /* Tile size in X */
(PID.TID 0000.0001)      sNy =   30 ; /* Tile size in Y */
(PID.TID 0000.0001)      OLx =    4 ; /* Tile overlap distance in X */
(PID.TID 0000.0001)      OLy =    4 ; /* Tile overlap distance in Y */
(PID.TID 0000.0001)      nTx =    1 ; /* No. threads in X per process */
(PID.TID 0000.0001)      nTy =    1 ; /* No. threads in Y per process */
(PID.TID 0000.0001)       Nr =   50 ; /* No. levels in the vertical   */
(PID.TID 0000.0001)       Nx =23010 ; /* Total domain size in X ( = nPx*nSx*sNx ) */
(PID.TID 0000.0001)       Ny =   30 ; /* Total domain size in Y ( = nPy*nSy*sNy ) */
(PID.TID 0000.0001)   nTiles =    1 ; /* Total no. tiles per process ( = nSx*nSy ) */
(PID.TID 0000.0001)   nProcs =  767 ; /* Total no. processes ( = nPx*nPy ) */
(PID.TID 0000.0001) nThreads =    1 ; /* Total no. threads per process ( = nTx*nTy ) */
(PID.TID 0000.0001) usingMPI =    T ; /* Flag used to control whether MPI is in use */
(PID.TID 0000.0001)                   /*  note: To execute a program with MPI calls */
(PID.TID 0000.0001)                   /*  it must be launched appropriately e.g     */
(PID.TID 0000.0001)                   /*  "mpirun -np 64 ......"                    */
(PID.TID 0000.0001) useCoupler=    F ;/* Flag used to control communications with   */
(PID.TID 0000.0001)                   /*  other model components, through a coupler */
(PID.TID 0000.0001) debugMode =    F ; /* print debug msg. (sequence of S/R calls)  */
(PID.TID 0000.0001) printMapIncludesZeros=    F ; /* print zeros in Std.Output maps */
(PID.TID 0000.0001) maxLengthPrt1D=   65 /* maxLength of 1D array printed to StdOut */
(PID.TID 0000.0001) 
(PID.TID 0000.0001) ======= Starting MPI parallel Run =========
(PID.TID 0000.0001)  My Processor Name (len:  8 ) = r11i2n12
(PID.TID 0000.0001)  Located at (  0,  0) on processor grid (0:766,0:  0)
(PID.TID 0000.0001)  Origin at  (     1,     1) on global grid (1: 23010,1:    30)
(PID.TID 0000.0001)  North neighbor = processor 0000
(PID.TID 0000.0001)  South neighbor = processor 0000
(PID.TID 0000.0001)   East neighbor = processor 0001
(PID.TID 0000.0001)   West neighbor = processor 0766
(PID.TID 0000.0001) // ======================================================
(PID.TID 0000.0001) // Mapping of tiles to threads
(PID.TID 0000.0001) // ======================================================
(PID.TID 0000.0001) // -o- Thread   1, tiles (   1:   1,   1:   1)
(PID.TID 0000.0001) 
(PID.TID 0000.0001) W2_READPARMS: opening data.exch2
(PID.TID 0000.0001)  OPEN_COPY_DATA_FILE: opening file data.exch2
(PID.TID 0000.0001) // =======================================================
(PID.TID 0000.0001) // Parameter file "data.exch2"
(PID.TID 0000.0001) // =======================================================
(PID.TID 0000.0001) ># EXCH2 Package: Wrapper-2 User Choice
(PID.TID 0000.0001) >#--------------------
(PID.TID 0000.0001) >#  preDefTopol   :: pre-defined Topology selector:
(PID.TID 0000.0001) >#                :: = 0 : topology defined from processing "data.exch2";
(PID.TID 0000.0001) >#                :: = 1 : simple, single facet topology;
(PID.TID 0000.0001) >#                :: = 2 : customized topology (w2_set_myown_facets)
(PID.TID 0000.0001) >#                :: = 3 : 6-facet Cube (3 face-dims: nRed, nGreen, nBlue).
(PID.TID 0000.0001) >#  dimsFacets    :: facet pair of dimensions (n1x,n1y, n2x,n2y ...)
(PID.TID 0000.0001) >#  facetEdgeLink :: Face-Edge connectivity map:
(PID.TID 0000.0001) >#    facetEdgeLink(i,j)=XX.1 : face(j)-edge(i) (i=1,2,3,4 <==> N,S,E,W)
(PID.TID 0000.0001) >#    is connected to Northern edge of face "XX" ; similarly,
(PID.TID 0000.0001) >#    = XX.2 : to Southern.E, XX.3 = Eastern.E, XX.4 = Western.E of face "XX"
(PID.TID 0000.0001) >#  blankList     :: List of "blank" tiles
(PID.TID 0000.0001) >#  W2_mapIO      :: global map IO selector (-1 = old type ; 0 = 1 long line in X
(PID.TID 0000.0001) >#                :: 1 = compact, mostly in Y dir)
(PID.TID 0000.0001) >#  W2_printMsg   :: option for information messages printing
(PID.TID 0000.0001) >#                :: <0 : write to log file ; =0 : minimum print ;
(PID.TID 0000.0001) >#                :: =1 : no duplicated print ; =2 : all processes do print
(PID.TID 0000.0001) >#--------------------
(PID.TID 0000.0001) > &W2_EXCH2_PARM01
(PID.TID 0000.0001) ># W2_printMsg= 1,
(PID.TID 0000.0001) >  W2_mapIO   = 1,
(PID.TID 0000.0001) >#
(PID.TID 0000.0001) >#-- 5 facets llc_270 topology (drop facet 6 and its connection):
(PID.TID 0000.0001) >  preDefTopol = 0,
(PID.TID 0000.0001) >  dimsFacets = 270, 810, 270, 810, 270, 270, 810, 270, 810, 270, 0, 0,
(PID.TID 0000.0001) >  facetEdgeLink(1,1)= 3.4, 0. , 2.4, 5.1,
(PID.TID 0000.0001) >  facetEdgeLink(1,2)= 3.2, 0. , 4.2, 1.3,
(PID.TID 0000.0001) >  facetEdgeLink(1,3)= 5.4, 2.1, 4.4, 1.1,
(PID.TID 0000.0001) >  facetEdgeLink(1,4)= 5.2, 2.3, 0. , 3.3,
(PID.TID 0000.0001) >  facetEdgeLink(1,5)= 1.4, 4.1, 0. , 3.1,
(PID.TID 0000.0001) >#
(PID.TID 0000.0001) >  blankList = 1,
(PID.TID 0000.0001) >  2,
(PID.TID 0000.0001) >  3,
(PID.TID 0000.0001) >  4,
(PID.TID 0000.0001) >  5,
(PID.TID 0000.0001) >  6,
(PID.TID 0000.0001) >  7,
(PID.TID 0000.0001) >  8,
(PID.TID 0000.0001) >  9,
(PID.TID 0000.0001) >  10,
(PID.TID 0000.0001) >  11,
(PID.TID 0000.0001) >  12,
(PID.TID 0000.0001) >  13,
(PID.TID 0000.0001) >  14,
(PID.TID 0000.0001) >  15,
(PID.TID 0000.0001) >  16,
(PID.TID 0000.0001) >  17,
(PID.TID 0000.0001) >  18,
(PID.TID 0000.0001) >  19,
(PID.TID 0000.0001) >  20,
(PID.TID 0000.0001) >  21,
(PID.TID 0000.0001) >  22,
(PID.TID 0000.0001) >  23,
(PID.TID 0000.0001) >  24,
(PID.TID 0000.0001) >  25,
(PID.TID 0000.0001) >  26,
(PID.TID 0000.0001) >  27,
(PID.TID 0000.0001) >  29,
(PID.TID 0000.0001) >  30,
(PID.TID 0000.0001) >  31,
(PID.TID 0000.0001) >  32,
(PID.TID 0000.0001) >  33,
(PID.TID 0000.0001) >  34,
(PID.TID 0000.0001) >  35,
(PID.TID 0000.0001) >  36,
(PID.TID 0000.0001) >  39,
(PID.TID 0000.0001) >  40,
(PID.TID 0000.0001) >  41,
(PID.TID 0000.0001) >  42,
(PID.TID 0000.0001) >  43,
(PID.TID 0000.0001) >  44,
(PID.TID 0000.0001) >  45,
(PID.TID 0000.0001) >  54,
(PID.TID 0000.0001) >  133,
(PID.TID 0000.0001) >  142,
(PID.TID 0000.0001) >  150,
(PID.TID 0000.0001) >  151,
(PID.TID 0000.0001) >  159,
(PID.TID 0000.0001) >  160,
(PID.TID 0000.0001) >  161,
(PID.TID 0000.0001) >  166,
(PID.TID 0000.0001) >  167,
(PID.TID 0000.0001) >  168,
(PID.TID 0000.0001) >  169,
(PID.TID 0000.0001) >  175,
(PID.TID 0000.0001) >  176,
(PID.TID 0000.0001) >  178,
(PID.TID 0000.0001) >  189,
(PID.TID 0000.0001) >  198,
(PID.TID 0000.0001) >  207,
(PID.TID 0000.0001) >  214,
(PID.TID 0000.0001) >  215,
(PID.TID 0000.0001) >  216,
(PID.TID 0000.0001) >  224,
(PID.TID 0000.0001) >  225,
(PID.TID 0000.0001) >  234,
(PID.TID 0000.0001) >  244,
(PID.TID 0000.0001) >  245,
(PID.TID 0000.0001) >  246,
(PID.TID 0000.0001) >  247,
(PID.TID 0000.0001) >  248,
(PID.TID 0000.0001) >  249,
(PID.TID 0000.0001) >  250,
(PID.TID 0000.0001) >  251,
(PID.TID 0000.0001) >  252,
(PID.TID 0000.0001) >  253,
(PID.TID 0000.0001) >  254,
(PID.TID 0000.0001) >  255,
(PID.TID 0000.0001) >  256,
(PID.TID 0000.0001) >  257,
(PID.TID 0000.0001) >  258,
(PID.TID 0000.0001) >  259,
(PID.TID 0000.0001) >  260,
(PID.TID 0000.0001) >  261,
(PID.TID 0000.0001) >  262,
(PID.TID 0000.0001) >  263,
(PID.TID 0000.0001) >  264,
(PID.TID 0000.0001) >  265,
(PID.TID 0000.0001) >  266,
(PID.TID 0000.0001) >  267,
(PID.TID 0000.0001) >  268,
(PID.TID 0000.0001) >  269,
(PID.TID 0000.0001) >  270,
(PID.TID 0000.0001) >  271,
(PID.TID 0000.0001) >  272,
(PID.TID 0000.0001) >  273,
(PID.TID 0000.0001) >  274,
(PID.TID 0000.0001) >  275,
(PID.TID 0000.0001) >  276,
(PID.TID 0000.0001) >  277,
(PID.TID 0000.0001) >  278,
(PID.TID 0000.0001) >  279,
(PID.TID 0000.0001) >  280,
(PID.TID 0000.0001) >  281,
(PID.TID 0000.0001) >  282,
(PID.TID 0000.0001) >  283,
(PID.TID 0000.0001) >  284,
(PID.TID 0000.0001) >  285,
(PID.TID 0000.0001) >  286,
(PID.TID 0000.0001) >  287,
(PID.TID 0000.0001) >  288,
(PID.TID 0000.0001) >  289,
(PID.TID 0000.0001) >  292,
(PID.TID 0000.0001) >  293,
(PID.TID 0000.0001) >  294,
(PID.TID 0000.0001) >  295,
(PID.TID 0000.0001) >  296,
(PID.TID 0000.0001) >  297,
(PID.TID 0000.0001) >  368,
(PID.TID 0000.0001) >  369,
(PID.TID 0000.0001) >  417,
(PID.TID 0000.0001) >  418,
(PID.TID 0000.0001) >  419,
(PID.TID 0000.0001) >  420,
(PID.TID 0000.0001) >  424,
(PID.TID 0000.0001) >  425,
(PID.TID 0000.0001) >  426,
(PID.TID 0000.0001) >  427,
(PID.TID 0000.0001) >  428,
(PID.TID 0000.0001) >  429,
(PID.TID 0000.0001) >  433,
(PID.TID 0000.0001) >  434,
(PID.TID 0000.0001) >  435,
(PID.TID 0000.0001) >  436,
(PID.TID 0000.0001) >  437,
(PID.TID 0000.0001) >  438,
(PID.TID 0000.0001) >  442,
(PID.TID 0000.0001) >  443,
(PID.TID 0000.0001) >  444,
(PID.TID 0000.0001) >  445,
(PID.TID 0000.0001) >  446,
(PID.TID 0000.0001) >  447,
(PID.TID 0000.0001) >  448,
(PID.TID 0000.0001) >  449,
(PID.TID 0000.0001) >  451,
(PID.TID 0000.0001) >  452,
(PID.TID 0000.0001) >  453,
(PID.TID 0000.0001) >  454,
(PID.TID 0000.0001) >  455,
(PID.TID 0000.0001) >  456,
(PID.TID 0000.0001) >  457,
(PID.TID 0000.0001) >  458,
(PID.TID 0000.0001) >  460,
(PID.TID 0000.0001) >  461,
(PID.TID 0000.0001) >  462,
(PID.TID 0000.0001) >  463,
(PID.TID 0000.0001) >  464,
(PID.TID 0000.0001) >  465,
(PID.TID 0000.0001) >  466,
(PID.TID 0000.0001) >  467,
(PID.TID 0000.0001) >  469,
(PID.TID 0000.0001) >  470,
(PID.TID 0000.0001) >  471,
(PID.TID 0000.0001) >  472,
(PID.TID 0000.0001) >  473,
(PID.TID 0000.0001) >  474,
(PID.TID 0000.0001) >  475,
(PID.TID 0000.0001) >  476,
(PID.TID 0000.0001) >  477,
(PID.TID 0000.0001) >  478,
(PID.TID 0000.0001) >  481,
(PID.TID 0000.0001) >  482,
(PID.TID 0000.0001) >  483,
(PID.TID 0000.0001) >  484,
(PID.TID 0000.0001) >  485,
(PID.TID 0000.0001) >  486,
(PID.TID 0000.0001) >  495,
(PID.TID 0000.0001) >  543,
(PID.TID 0000.0001) >  551,
(PID.TID 0000.0001) >  559,
(PID.TID 0000.0001) >  568,
(PID.TID 0000.0001) >  569,
(PID.TID 0000.0001) >  589,
(PID.TID 0000.0001) >  590,
(PID.TID 0000.0001) >  591,
(PID.TID 0000.0001) >  592,
(PID.TID 0000.0001) >  593,
(PID.TID 0000.0001) >  594,
(PID.TID 0000.0001) >  595,
(PID.TID 0000.0001) >  596,
(PID.TID 0000.0001) >  617,
(PID.TID 0000.0001) >  618,
(PID.TID 0000.0001) >  619,
(PID.TID 0000.0001) >  620,
(PID.TID 0000.0001) >  621,
(PID.TID 0000.0001) >  645,
(PID.TID 0000.0001) >  646,
(PID.TID 0000.0001) >  647,
(PID.TID 0000.0001) >  648,
(PID.TID 0000.0001) >  673,
(PID.TID 0000.0001) >  674,
(PID.TID 0000.0001) >  675,
(PID.TID 0000.0001) >  700,
(PID.TID 0000.0001) >  701,
(PID.TID 0000.0001) >  702,
(PID.TID 0000.0001) >  727,
(PID.TID 0000.0001) >  728,
(PID.TID 0000.0001) >  729,
(PID.TID 0000.0001) >  731,
(PID.TID 0000.0001) >  754,
(PID.TID 0000.0001) >  755,
(PID.TID 0000.0001) >  756,
(PID.TID 0000.0001) >  758,
(PID.TID 0000.0001) >  780,
(PID.TID 0000.0001) >  781,
(PID.TID 0000.0001) >  782,
(PID.TID 0000.0001) >  783,
(PID.TID 0000.0001) >  784,
(PID.TID 0000.0001) >  785,
(PID.TID 0000.0001) >  807,
(PID.TID 0000.0001) >  808,
(PID.TID 0000.0001) >  809,
(PID.TID 0000.0001) >  810,
(PID.TID 0000.0001) >  811,
(PID.TID 0000.0001) >  812,
(PID.TID 0000.0001) >  813,
(PID.TID 0000.0001) >  814,
(PID.TID 0000.0001) >  834,
(PID.TID 0000.0001) >  835,
(PID.TID 0000.0001) >  836,
(PID.TID 0000.0001) >  837,
(PID.TID 0000.0001) >  839,
(PID.TID 0000.0001) >  840,
(PID.TID 0000.0001) >  841,
(PID.TID 0000.0001) >  842,
(PID.TID 0000.0001) >  843,
(PID.TID 0000.0001) >  861,
(PID.TID 0000.0001) >  862,
(PID.TID 0000.0001) >  863,
(PID.TID 0000.0001) >  864,
(PID.TID 0000.0001) >  866,
(PID.TID 0000.0001) >  867,
(PID.TID 0000.0001) >  868,
(PID.TID 0000.0001) >  869,
(PID.TID 0000.0001) >  870,
(PID.TID 0000.0001) >  871,
(PID.TID 0000.0001) >  888,
(PID.TID 0000.0001) >  889,
(PID.TID 0000.0001) >  890,
(PID.TID 0000.0001) >  891,
(PID.TID 0000.0001) >  896,
(PID.TID 0000.0001) >  897,
(PID.TID 0000.0001) >  898,
(PID.TID 0000.0001) >  914,
(PID.TID 0000.0001) >  915,
(PID.TID 0000.0001) >  916,
(PID.TID 0000.0001) >  917,
(PID.TID 0000.0001) >  918,
(PID.TID 0000.0001) >  924,
(PID.TID 0000.0001) >  942,
(PID.TID 0000.0001) >  943,
(PID.TID 0000.0001) >  944,
(PID.TID 0000.0001) >  945,
(PID.TID 0000.0001) >  968,
(PID.TID 0000.0001) >  969,
(PID.TID 0000.0001) >  970,
(PID.TID 0000.0001) >  971,
(PID.TID 0000.0001) >  972,
(PID.TID 0000.0001) >  983,
(PID.TID 0000.0001) >  984,
(PID.TID 0000.0001) >  985,
(PID.TID 0000.0001) >  986,
(PID.TID 0000.0001) >  987,
(PID.TID 0000.0001) >  996,
(PID.TID 0000.0001) >  997,
(PID.TID 0000.0001) >  998,
(PID.TID 0000.0001) >  999,
(PID.TID 0000.0001) >  1011,
(PID.TID 0000.0001) >  1012,
(PID.TID 0000.0001) >  1023,
(PID.TID 0000.0001) >  1024,
(PID.TID 0000.0001) >  1025,
(PID.TID 0000.0001) >  1026,
(PID.TID 0000.0001) >  1051,
(PID.TID 0000.0001) >  1052,
(PID.TID 0000.0001) >  1053,
(PID.TID 0000.0001) > &
(PID.TID 0000.0001) 
(PID.TID 0000.0001) W2_READPARMS: finished reading data.exch2
(PID.TID 0000.0001) W2_useE2ioLayOut=    T ;/* T: use Exch2 glob IO map; F: use model default */
(PID.TID 0000.0001) W2_mapIO        =   1 ; /* select option for Exch2 global-IO map */
(PID.TID 0000.0001) W2_printMsg     =  -1 ; /* select option for printing information */
(PID.TID 0000.0001) ===== Start setting W2 TOPOLOGY:
(PID.TID 0000.0001)  write to log-file: w2_tile_topology.0000.log
(PID.TID 0000.0001) =====       setting W2 TOPOLOGY: Done
(PID.TID 0000.0001) 
(PID.TID 0000.0001)  INI_PARMS: opening model parameter file "data"
(PID.TID 0000.0001)  OPEN_COPY_DATA_FILE: opening file data
(PID.TID 0000.0001) // =======================================================
(PID.TID 0000.0001) // Parameter file "data"
(PID.TID 0000.0001) // =======================================================
(PID.TID 0000.0001) ># ====================
(PID.TID 0000.0001) ># | Model parameters |
(PID.TID 0000.0001) ># ====================
(PID.TID 0000.0001) >#
(PID.TID 0000.0001) ># Continuous equation parameters
(PID.TID 0000.0001) > &PARM01
(PID.TID 0000.0001) > tRef           = 3*23.,3*22.,21.,2*20.,19.,2*18.,17.,2*16.,15.,14.,13.,
(PID.TID 0000.0001) >                  12.,11.,2*9.,8.,7.,2*6.,2*5.,3*4.,3*3.,4*2.,12*1.,
(PID.TID 0000.0001) > sRef           = 50*34.5,
(PID.TID 0000.0001) > no_slip_sides  = .TRUE.,
(PID.TID 0000.0001) > no_slip_bottom = .TRUE.,
(PID.TID 0000.0001) >#
(PID.TID 0000.0001) > viscAr=0.5E-4,
(PID.TID 0000.0001) >#
(PID.TID 0000.0001) > viscAh=1.E0,
(PID.TID 0000.0001) > viscAhGrid=1.E-2,
(PID.TID 0000.0001) >#
(PID.TID 0000.0001) > diffKhS=1.E1,
(PID.TID 0000.0001) > diffKhT=1.E1,
(PID.TID 0000.0001) > diffKrS=1.E-5,
(PID.TID 0000.0001) > diffKrT=1.E-5,
(PID.TID 0000.0001) >#
(PID.TID 0000.0001) > bottomDragQuadratic = 0.001,
(PID.TID 0000.0001) >#when using ggl90
(PID.TID 0000.0001) > ivdc_kappa=10.,
(PID.TID 0000.0001) > implicitDiffusion=.TRUE.,
(PID.TID 0000.0001) > implicitViscosity=.TRUE.,
(PID.TID 0000.0001) > viscC4Leith=1.5,
(PID.TID 0000.0001) > viscC4Leithd=1.5,
(PID.TID 0000.0001) > viscA4GridMax=0.5,
(PID.TID 0000.0001) > useAreaViscLength=.TRUE.,
(PID.TID 0000.0001) > useRealFreshWaterFlux=.TRUE.,
(PID.TID 0000.0001) > balanceSaltClimRelax=.TRUE.,
(PID.TID 0000.0001) > allowFreezing=.FALSE.,
(PID.TID 0000.0001) > hFacMinDr=50.,
(PID.TID 0000.0001) > hFacMin=0.3,
(PID.TID 0000.0001) > hFacInf=0.1,
(PID.TID 0000.0001) > hFacSup=5.,
(PID.TID 0000.0001) > select_rStar=2,
(PID.TID 0000.0001) > nonlinFreeSurf=4,
(PID.TID 0000.0001) > gravity=9.81,
(PID.TID 0000.0001) > rhonil=1029.,
(PID.TID 0000.0001) > rhoConst=1029.,
(PID.TID 0000.0001) > rhoConstFresh=1000.,
(PID.TID 0000.0001) > convertFW2Salt=-1.,
(PID.TID 0000.0001) > eosType='JMD95Z',
(PID.TID 0000.0001) > implicitFreeSurface=.TRUE.,
(PID.TID 0000.0001) > exactConserv=.TRUE.,
(PID.TID 0000.0001) > useSingleCpuIO=.TRUE.,
(PID.TID 0000.0001) > tempAdvScheme=30,
(PID.TID 0000.0001) > saltAdvScheme=30,
(PID.TID 0000.0001) > tempVertAdvScheme=3,
(PID.TID 0000.0001) > saltVertAdvScheme=3,
(PID.TID 0000.0001) > tempImplVertAdv=.TRUE.,
(PID.TID 0000.0001) > saltImplVertAdv=.TRUE.,
(PID.TID 0000.0001) > staggerTimeStep=.TRUE.,
(PID.TID 0000.0001) > vectorInvariantMomentum=.TRUE.,
(PID.TID 0000.0001) >#when using the cd scheme:
(PID.TID 0000.0001) ># useCDscheme=.TRUE.,
(PID.TID 0000.0001) > useJamartWetPoints=.TRUE.,
(PID.TID 0000.0001) > readBinaryPrec=32,
(PID.TID 0000.0001) > writeBinaryPrec=32,
(PID.TID 0000.0001) > debugLevel=1,
(PID.TID 0000.0001) > /
(PID.TID 0000.0001) >
(PID.TID 0000.0001) ># Elliptic solver parameters
(PID.TID 0000.0001) > &PARM02
(PID.TID 0000.0001) > cg2dMaxIters=300,
(PID.TID 0000.0001) > cg2dTargetResWunit=1.E-12,
(PID.TID 0000.0001) > /
(PID.TID 0000.0001) >
(PID.TID 0000.0001) ># Time stepping parameters
(PID.TID 0000.0001) > &PARM03
(PID.TID 0000.0001) > nIter0=1,
(PID.TID 0000.0001) > nTimeSteps=4,
(PID.TID 0000.0001) > forcing_In_AB=.FALSE.,
(PID.TID 0000.0001) > momDissip_In_AB=.FALSE.,
(PID.TID 0000.0001) >#when using the cd scheme:
(PID.TID 0000.0001) ># epsAB_CD = 0.25,
(PID.TID 0000.0001) ># tauCD=172800.0,
(PID.TID 0000.0001) > deltaTmom   =1200.,
(PID.TID 0000.0001) > deltaTtracer=1200.,
(PID.TID 0000.0001) > deltaTfreesurf=1200.,
(PID.TID 0000.0001) > deltaTClock =1200.,
(PID.TID 0000.0001) >#when using ab2:
(PID.TID 0000.0001) ># abEps = 0.1,
(PID.TID 0000.0001) >#when using ab3:
(PID.TID 0000.0001) > doAB_onGtGs=.FALSE.,
(PID.TID 0000.0001) > alph_AB=0.5,
(PID.TID 0000.0001) > beta_AB=0.281105,
(PID.TID 0000.0001) >#
(PID.TID 0000.0001) > pChkptFreq  =31536000.0,
(PID.TID 0000.0001) > chkptFreq   =31536000.0,
(PID.TID 0000.0001) > monitorFreq = 1.0,
(PID.TID 0000.0001) > dumpInitAndLast = .FALSE.,
(PID.TID 0000.0001) > adjDumpFreq = 31536000.0,
(PID.TID 0000.0001) > adjMonitorFreq = 43200.0,
(PID.TID 0000.0001) > pickupStrictlyMatch=.FALSE.,
(PID.TID 0000.0001) > /
(PID.TID 0000.0001) >
(PID.TID 0000.0001) ># Gridding parameters
(PID.TID 0000.0001) > &PARM04
(PID.TID 0000.0001) > usingCurvilinearGrid=.TRUE.,
(PID.TID 0000.0001) > delR =
(PID.TID 0000.0001) >     10.00, 10.00, 10.00, 10.00, 10.00, 10.00, 10.00, 10.01,
(PID.TID 0000.0001) >     10.03, 10.11, 10.32, 10.80, 11.76, 13.42, 16.04, 19.82, 24.85,
(PID.TID 0000.0001) >     31.10, 38.42, 46.50, 55.00, 63.50, 71.58, 78.90, 85.15, 90.18,
(PID.TID 0000.0001) >     93.96, 96.58, 98.25, 99.25,100.01,101.33,104.56,111.33,122.83,
(PID.TID 0000.0001) >     139.09,158.94,180.83,203.55,226.50,249.50,272.50,295.50,318.50,
(PID.TID 0000.0001) >     341.50,364.50,387.50,410.50,433.50,456.50,
(PID.TID 0000.0001) > /
(PID.TID 0000.0001) >
(PID.TID 0000.0001) ># Input datasets
(PID.TID 0000.0001) > &PARM05
(PID.TID 0000.0001) > adTapeDir='tapes',
(PID.TID 0000.0001) > bathyFile      ='bathy270_filled_noCaspian_r4',
(PID.TID 0000.0001) > hydrogThetaFile='T_OWPv1_M_eccollc_90x50.bin',
(PID.TID 0000.0001) > hydrogSaltFile ='S_OWPv1_M_eccollc_90x50.bin',
(PID.TID 0000.0001) > /
(PID.TID 0000.0001) 
(PID.TID 0000.0001)  INI_PARMS ; starts to read PARM01
(PID.TID 0000.0001)  INI_PARMS ; read PARM01 : OK
(PID.TID 0000.0001)  INI_PARMS ; starts to read PARM02
(PID.TID 0000.0001)  INI_PARMS ; read PARM02 : OK
(PID.TID 0000.0001)  INI_PARMS ; starts to read PARM03
(PID.TID 0000.0001)  INI_PARMS ; read PARM03 : OK
(PID.TID 0000.0001)  INI_PARMS ; starts to read PARM04
(PID.TID 0000.0001)  INI_PARMS ; read PARM04 : OK
(PID.TID 0000.0001)  INI_PARMS ; starts to read PARM05
(PID.TID 0000.0001)  INI_PARMS ; read PARM05 : OK
(PID.TID 0000.0001)  INI_PARMS: finished reading file "data"
(PID.TID 0000.0001)  PACKAGES_BOOT: opening data.pkg
(PID.TID 0000.0001)  OPEN_COPY_DATA_FILE: opening file data.pkg
(PID.TID 0000.0001) // =======================================================
(PID.TID 0000.0001) // Parameter file "data.pkg"
(PID.TID 0000.0001) // =======================================================
(PID.TID 0000.0001) ># Packages
(PID.TID 0000.0001) > &PACKAGES
(PID.TID 0000.0001) > useEXF   = .TRUE.,
(PID.TID 0000.0001) > useCAL   = .TRUE.,
(PID.TID 0000.0001) > useGMRedi= .TRUE.,
(PID.TID 0000.0001) > useSeaice= .TRUE.,
(PID.TID 0000.0001) > useGGL90 = .TRUE.,
(PID.TID 0000.0001) > useCTRL  = .TRUE.,
(PID.TID 0000.0001) > useSMOOTH= .TRUE.,
(PID.TID 0000.0001) > useSALT_PlUME=.TRUE.,
(PID.TID 0000.0001) > useDiagnostics=.TRUE.,
(PID.TID 0000.0001) > usePTRACERS   = .TRUE.,
(PID.TID 0000.0001) > useGCHEM      = .TRUE.,
(PID.TID 0000.0001) > /
(PID.TID 0000.0001) 
(PID.TID 0000.0001)  PACKAGES_BOOT: finished reading data.pkg
(PID.TID 0000.0001)  PACKAGES_BOOT: On/Off package Summary
 --------  pkgs with a standard "usePKG" On/Off switch in "data.pkg":  --------
 pkg/ggl90                compiled   and   used ( useGGL90                 = T )
 pkg/gmredi               compiled   and   used ( useGMRedi                = T )
 pkg/cal                  compiled   and   used ( useCAL                   = T )
 pkg/exf                  compiled   and   used ( useEXF                   = T )
 pkg/smooth               compiled   and   used ( useSMOOTH                = T )
 pkg/ctrl                 compiled   and   used ( useCTRL                  = T )
 pkg/ptracers             compiled   and   used ( usePTRACERS              = T )
 pkg/gchem                compiled   and   used ( useGCHEM                 = T )
 pkg/seaice               compiled   and   used ( useSEAICE                = T )
 pkg/salt_plume           compiled   and   used ( useSALT_PLUME            = T )
 pkg/diagnostics          compiled   and   used ( useDiagnostics           = T )
 -------- pkgs without standard "usePKG" On/Off switch in "data.pkg":  --------
 pkg/generic_advdiff      compiled   and   used ( useGAD                   = T )
 pkg/mom_common           compiled   and   used ( momStepping              = T )
 pkg/mom_vecinv           compiled   and   used ( +vectorInvariantMomentum = T )
 pkg/monitor              compiled   and   used ( monitorFreq > 0.         = T )
 pkg/debug                compiled but not used ( debugMode                = F )
 pkg/exch2                compiled   and   used
 pkg/rw                   compiled   and   used
 pkg/mdsio                compiled   and   used
(PID.TID 0000.0001)  PACKAGES_BOOT: End of package Summary
(PID.TID 0000.0001) 
(PID.TID 0000.0001) CAL_READPARMS: opening data.cal
(PID.TID 0000.0001)  OPEN_COPY_DATA_FILE: opening file data.cal
(PID.TID 0000.0001) // =======================================================
(PID.TID 0000.0001) // Parameter file "data.cal"
(PID.TID 0000.0001) // =======================================================
(PID.TID 0000.0001) >#
(PID.TID 0000.0001) ># *******************
(PID.TID 0000.0001) ># Calendar Parameters
(PID.TID 0000.0001) ># *******************
(PID.TID 0000.0001) > &CAL_NML
(PID.TID 0000.0001) > TheCalendar='gregorian',
(PID.TID 0000.0001) > startDate_1=19920101,
(PID.TID 0000.0001) ># startDate_2=120000,
(PID.TID 0000.0001) > startDate_2=000000,
(PID.TID 0000.0001) > calendarDumps = .TRUE.,
(PID.TID 0000.0001) > &
(PID.TID 0000.0001) 
(PID.TID 0000.0001) CAL_READPARMS: finished reading data.cal
(PID.TID 0000.0001) EXF_READPARMS: opening data.exf
(PID.TID 0000.0001)  OPEN_COPY_DATA_FILE: opening file data.exf
(PID.TID 0000.0001) // =======================================================
(PID.TID 0000.0001) // Parameter file "data.exf"
(PID.TID 0000.0001) // =======================================================
(PID.TID 0000.0001) ># *********************
(PID.TID 0000.0001) ># External Forcing Data
(PID.TID 0000.0001) ># *********************
(PID.TID 0000.0001) >#
(PID.TID 0000.0001) > &EXF_NML_01
(PID.TID 0000.0001) >#
(PID.TID 0000.0001) > useAtmWind        = .TRUE.,
(PID.TID 0000.0001) >#NCEP VALUES:
(PID.TID 0000.0001) ># exf_albedo        = 0.15,
(PID.TID 0000.0001) ># exf_scal_BulkCdn  = 1.015,
(PID.TID 0000.0001) >#
(PID.TID 0000.0001) >#TO COMBINE WITH ALLOW_ZENITH_ANGLE:
(PID.TID 0000.0001) > exf_albedo        = 0.1,
(PID.TID 0000.0001) > useExfZenIncoming = .TRUE.,
(PID.TID 0000.0001) > select_ZenAlbedo  = 1,
(PID.TID 0000.0001) >#
(PID.TID 0000.0001) > ocean_emissivity = 0.97,
(PID.TID 0000.0001) > ice_emissivity = 0.95,
(PID.TID 0000.0001) > snow_emissivity = 0.95,
(PID.TID 0000.0001) >#
(PID.TID 0000.0001) > exf_iprec         = 32,
(PID.TID 0000.0001) > exf_yftype        = 'RL',
(PID.TID 0000.0001) > useExfYearlyFields= .TRUE.,
(PID.TID 0000.0001) > useExfCheckRange  = .FALSE.,
(PID.TID 0000.0001) > /
(PID.TID 0000.0001) >#
(PID.TID 0000.0001) > &EXF_NML_02
(PID.TID 0000.0001) > atempfile         = 'era_xx/EIG_tmp2m_degC_plus_ECCO_v4r1_ctrl',
(PID.TID 0000.0001) > aqhfile           = 'era_xx/EIG_spfh2m_plus_ECCO_v4r1_ctrl',
(PID.TID 0000.0001) > precipfile        = 'era_xx/EIG_rain_plus_ECCO_v4r1_ctrl',
(PID.TID 0000.0001) > uwindfile         = 'era_xx/EIG_u10m',
(PID.TID 0000.0001) > vwindfile         = 'era_xx/EIG_v10m',
(PID.TID 0000.0001) > swdownfile        = 'era_xx/EIG_dsw_plus_ECCO_v4r1_ctrl',
(PID.TID 0000.0001) > lwdownfile        = 'era_xx/EIG_dlw_plus_ECCO_v4r1_ctrl',
(PID.TID 0000.0001) > apco2file         = 'apCO2',
(PID.TID 0000.0001) >#
(PID.TID 0000.0001) > atempstartdate1   = 19920101,
(PID.TID 0000.0001) > atempstartdate2   = 000000,
(PID.TID 0000.0001) > atempperiod       = 21600.0,
(PID.TID 0000.0001) >#
(PID.TID 0000.0001) > aqhstartdate1     = 19920101,
(PID.TID 0000.0001) > aqhstartdate2     = 000000,
(PID.TID 0000.0001) > aqhperiod         = 21600.0,
(PID.TID 0000.0001) >#
(PID.TID 0000.0001) > precipstartdate1  = 19920101,
(PID.TID 0000.0001) > precipstartdate2  = 030000,
(PID.TID 0000.0001) > precipperiod      = 21600.0,
(PID.TID 0000.0001) >#
(PID.TID 0000.0001) > runofffile        = 'runoff-2d-Fekete-1deg-mon-V4-SMOOTH.bin',
(PID.TID 0000.0001) > runoffperiod      = -12,
(PID.TID 0000.0001) >#
(PID.TID 0000.0001) > uwindstartdate1   = 19920101,
(PID.TID 0000.0001) > uwindstartdate2   = 000000,
(PID.TID 0000.0001) > uwindperiod       = 21600.0,
(PID.TID 0000.0001) >#
(PID.TID 0000.0001) > vwindstartdate1   = 19920101,
(PID.TID 0000.0001) > vwindstartdate2   = 000000,
(PID.TID 0000.0001) > vwindperiod       = 21600.0,
(PID.TID 0000.0001) >#
(PID.TID 0000.0001) > swdownstartdate1  = 19920101,
(PID.TID 0000.0001) > swdownstartdate2  = 030000,
(PID.TID 0000.0001) > swdownperiod      = 21600.0,
(PID.TID 0000.0001) >#
(PID.TID 0000.0001) > lwdownstartdate1  = 19920101,
(PID.TID 0000.0001) > lwdownstartdate2  = 030000,
(PID.TID 0000.0001) > lwdownperiod      = 21600.0,
(PID.TID 0000.0001) >#
(PID.TID 0000.0001) > apco2startdate1  = 19920101,
(PID.TID 0000.0001) > apco2startdate2  = 030000,
(PID.TID 0000.0001) > apco2period      = 86400.0,
(PID.TID 0000.0001) > /
(PID.TID 0000.0001) >#
(PID.TID 0000.0001) > &EXF_NML_03
(PID.TID 0000.0001) >#NOT FOR EIG exf_offset_atemp  = 273.3971,
(PID.TID 0000.0001) > exf_offset_atemp  = 273.15,
(PID.TID 0000.0001) >#NOT FOR NEW RUNOFF FIELD exf_inscal_runoff = 3.1710e-08,
(PID.TID 0000.0001) > exf_inscal_swdown = -1.0,
(PID.TID 0000.0001) > exf_inscal_lwdown = -1.0,
(PID.TID 0000.0001) ># to compensate for sea level rise for nlfs/realFWF
(PID.TID 0000.0001) >#precip_exfremo_intercept = 1.073E-9,
(PID.TID 0000.0001) >#precip_exfremo_slope = -3.340E-18,
(PID.TID 0000.0001) > /
(PID.TID 0000.0001) >#
(PID.TID 0000.0001) > &EXF_NML_04
(PID.TID 0000.0001) > runoff_interpMethod = 0,
(PID.TID 0000.0001) >#
(PID.TID 0000.0001) > atemp_lon0        =   0.0000000D0,
(PID.TID 0000.0001) > atemp_lon_inc     =   0.7031250D0,
(PID.TID 0000.0001) > atemp_lat0        = -89.4628220D0,
(PID.TID 0000.0001) > atemp_lat_inc     = 0.6958694,0.6999817,0.7009048,0.7012634,0.7014313,
(PID.TID 0000.0001) >                     245*0.7017418,
(PID.TID 0000.0001) >                     0.7014313,0.7012634,0.7009048,0.6999817,0.6958694
(PID.TID 0000.0001) > atemp_nlon        = 512,
(PID.TID 0000.0001) > atemp_nlat        = 256,
(PID.TID 0000.0001) >#
(PID.TID 0000.0001) > aqh_lon0        =   0.0000000D0,
(PID.TID 0000.0001) > aqh_lon_inc     =   0.7031250D0,
(PID.TID 0000.0001) > aqh_lat0        = -89.4628220D0,
(PID.TID 0000.0001) > aqh_lat_inc     = 0.6958694,0.6999817,0.7009048,0.7012634,0.7014313,
(PID.TID 0000.0001) >                     245*0.7017418,
(PID.TID 0000.0001) >                     0.7014313,0.7012634,0.7009048,0.6999817,0.6958694
(PID.TID 0000.0001) > aqh_nlon        = 512,
(PID.TID 0000.0001) > aqh_nlat        = 256,
(PID.TID 0000.0001) >#
(PID.TID 0000.0001) > precip_lon0        =   0.0000000D0,
(PID.TID 0000.0001) > precip_lon_inc     =   0.7031250D0,
(PID.TID 0000.0001) > precip_lat0        = -89.4628220D0,
(PID.TID 0000.0001) > precip_lat_inc     = 0.6958694,0.6999817,0.7009048,0.7012634,0.7014313,
(PID.TID 0000.0001) >                     245*0.7017418,
(PID.TID 0000.0001) >                     0.7014313,0.7012634,0.7009048,0.6999817,0.6958694
(PID.TID 0000.0001) > precip_nlon        = 512,
(PID.TID 0000.0001) > precip_nlat        = 256,
(PID.TID 0000.0001) >#
(PID.TID 0000.0001) > uwind_lon0        =   0.0000000D0,
(PID.TID 0000.0001) > uwind_lon_inc     =   0.7031250D0,
(PID.TID 0000.0001) > uwind_lat0        = -89.4628220D0,
(PID.TID 0000.0001) > uwind_lat_inc     = 0.6958694,0.6999817,0.7009048,0.7012634,0.7014313,
(PID.TID 0000.0001) >                     245*0.7017418,
(PID.TID 0000.0001) >                     0.7014313,0.7012634,0.7009048,0.6999817,0.6958694
(PID.TID 0000.0001) > uwind_nlon        = 512,
(PID.TID 0000.0001) > uwind_nlat        = 256,
(PID.TID 0000.0001) >#
(PID.TID 0000.0001) > vwind_lon0        =   0.0000000D0,
(PID.TID 0000.0001) > vwind_lon_inc     =   0.7031250D0,
(PID.TID 0000.0001) > vwind_lat0        = -89.4628220D0,
(PID.TID 0000.0001) > vwind_lat_inc     = 0.6958694,0.6999817,0.7009048,0.7012634,0.7014313,
(PID.TID 0000.0001) >                     245*0.7017418,
(PID.TID 0000.0001) >                     0.7014313,0.7012634,0.7009048,0.6999817,0.6958694
(PID.TID 0000.0001) > vwind_nlon        = 512,
(PID.TID 0000.0001) > vwind_nlat        = 256,
(PID.TID 0000.0001) >#
(PID.TID 0000.0001) > swdown_lon0        =   0.0000000D0,
(PID.TID 0000.0001) > swdown_lon_inc     =   0.7031250D0,
(PID.TID 0000.0001) > swdown_lat0        = -89.4628220D0,
(PID.TID 0000.0001) > swdown_lat_inc     = 0.6958694,0.6999817,0.7009048,0.7012634,0.7014313,
(PID.TID 0000.0001) >                     245*0.7017418,
(PID.TID 0000.0001) >                     0.7014313,0.7012634,0.7009048,0.6999817,0.6958694
(PID.TID 0000.0001) > swdown_nlon        = 512,
(PID.TID 0000.0001) > swdown_nlat        = 256,
(PID.TID 0000.0001) >#
(PID.TID 0000.0001) > lwdown_lon0        =   0.0000000D0,
(PID.TID 0000.0001) > lwdown_lon_inc     =   0.7031250D0,
(PID.TID 0000.0001) > lwdown_lat0        = -89.4628220D0,
(PID.TID 0000.0001) > lwdown_lat_inc     = 0.6958694,0.6999817,0.7009048,0.7012634,0.7014313,
(PID.TID 0000.0001) >                     245*0.7017418,
(PID.TID 0000.0001) >                     0.7014313,0.7012634,0.7009048,0.6999817,0.6958694
(PID.TID 0000.0001) > lwdown_nlon        = 512,
(PID.TID 0000.0001) > lwdown_nlat        = 256,
(PID.TID 0000.0001) >#
(PID.TID 0000.0001) > apco2_lon0         = 0.0D0,
(PID.TID 0000.0001) > apco2_lon_inc      = 360.0D0,
(PID.TID 0000.0001) > apco2_lat0        = -89.4628220D0,
(PID.TID 0000.0001) > apco2_lat_inc     = 0.6958694,0.6999817,0.7009048,0.7012634,0.7014313,
(PID.TID 0000.0001) >                     245*0.7017418,
(PID.TID 0000.0001) >                     0.7014313,0.7012634,0.7009048,0.6999817,0.6958694
(PID.TID 0000.0001) > apco2_nlon         = 2,
(PID.TID 0000.0001) > apco2_nlat         = 256,
(PID.TID 0000.0001) > /
(PID.TID 0000.0001) 
(PID.TID 0000.0001) EXF_READPARMS: reading EXF_NML_01
(PID.TID 0000.0001) EXF_READPARMS: reading EXF_NML_02
(PID.TID 0000.0001) EXF_READPARMS: reading EXF_NML_03
(PID.TID 0000.0001) EXF_READPARMS: reading EXF_NML_04
(PID.TID 0000.0001) EXF_READPARMS: finished reading data.exf
(PID.TID 0000.0001)  GGL90_READPARMS: opening data.ggl90
(PID.TID 0000.0001)  OPEN_COPY_DATA_FILE: opening file data.ggl90
(PID.TID 0000.0001) // =======================================================
(PID.TID 0000.0001) // Parameter file "data.ggl90"
(PID.TID 0000.0001) // =======================================================
(PID.TID 0000.0001) ># =====================================================================
(PID.TID 0000.0001) ># | Parameters for Gaspar et al. (1990)'s TKE vertical mixing scheme  |
(PID.TID 0000.0001) ># =====================================================================
(PID.TID 0000.0001) > &GGL90_PARM01
(PID.TID 0000.0001) > GGL90alpha=30.,
(PID.TID 0000.0001) > GGL90TKEmin  = 1.e-7,
(PID.TID 0000.0001) > GGL90TKEbottom = 1.e-6,
(PID.TID 0000.0001) > mxlMaxFlag =2,
(PID.TID 0000.0001) > mxlSurfFlag=.TRUE.,
(PID.TID 0000.0001) > /
(PID.TID 0000.0001) 
(PID.TID 0000.0001)  GGL90_READPARMS ; starts to read GGL90_PARM01
(PID.TID 0000.0001)  GGL90_READPARMS: read GGL90_PARM01 : OK
(PID.TID 0000.0001)  GGL90_READPARMS: finished reading data.ggl90
(PID.TID 0000.0001) // =======================================================
(PID.TID 0000.0001) // GGL90 configuration
(PID.TID 0000.0001) // =======================================================
(PID.TID 0000.0001) GGL90dumpFreq =   /* GGL90 state write out interval ( s ). */
(PID.TID 0000.0001)                 0.000000000000000E+00
(PID.TID 0000.0001)     ;
(PID.TID 0000.0001) GGL90taveFreq =   /* GGL90 averaging interval ( s ). */
(PID.TID 0000.0001)                 0.000000000000000E+00
(PID.TID 0000.0001)     ;
(PID.TID 0000.0001) GGL90mixingMAPS =   /* GGL90 IO flag. */
(PID.TID 0000.0001)                   F
(PID.TID 0000.0001)     ;
(PID.TID 0000.0001) GGL90writeState =   /* GGL90 IO flag. */
(PID.TID 0000.0001)                   F
(PID.TID 0000.0001)     ;
(PID.TID 0000.0001) GGL90ck =   /* GGL90 viscosity parameter. */
(PID.TID 0000.0001)                 1.000000000000000E-01
(PID.TID 0000.0001)     ;
(PID.TID 0000.0001) GGL90ceps =   /* GGL90 dissipation parameter. */
(PID.TID 0000.0001)                 7.000000000000000E-01
(PID.TID 0000.0001)     ;
(PID.TID 0000.0001) GGL90alpha =   /* GGL90 TKE diffusivity parameter. */
(PID.TID 0000.0001)                 3.000000000000000E+01
(PID.TID 0000.0001)     ;
(PID.TID 0000.0001) GGL90m2 =   /* GGL90 wind stress to vertical stress ratio. */
(PID.TID 0000.0001)                 3.750000000000000E+00
(PID.TID 0000.0001)     ;
(PID.TID 0000.0001) GGL90TKEmin =   /* GGL90 minimum kinetic energy ( m^2/s^2 ). */
(PID.TID 0000.0001)                 1.000000000000000E-07
(PID.TID 0000.0001)     ;
(PID.TID 0000.0001) GGL90TKEsurfMin =   /* GGL90 minimum surface kinetic energy ( m^2/s^2 ). */
(PID.TID 0000.0001)                 1.000000000000000E-04
(PID.TID 0000.0001)     ;
(PID.TID 0000.0001) GGL90TKEbottom =   /* GGL90 bottom kinetic energy ( m^2/s^2 ). */
(PID.TID 0000.0001)                 1.000000000000000E-06
(PID.TID 0000.0001)     ;
(PID.TID 0000.0001) GGL90viscMax =   /* GGL90 upper limit for viscosity ( m^2/s ). */
(PID.TID 0000.0001)                 1.000000000000000E+02
(PID.TID 0000.0001)     ;
(PID.TID 0000.0001) GGL90diffMax =   /* GGL90 upper limit for diffusivity ( m^2/s ). */
(PID.TID 0000.0001)                 1.000000000000000E+02
(PID.TID 0000.0001)     ;
(PID.TID 0000.0001) GGL90diffTKEh =   /* GGL90 horizontal diffusivity for TKE ( m^2/s ). */
(PID.TID 0000.0001)                 0.000000000000000E+00
(PID.TID 0000.0001)     ;
(PID.TID 0000.0001) GGL90mixingLengthMin =   /* GGL90 minimum mixing length ( m ). */
(PID.TID 0000.0001)                 1.000000000000000E-08
(PID.TID 0000.0001)     ;
(PID.TID 0000.0001) mxlMaxFlag =   /* Flag for limiting mixing-length method */
(PID.TID 0000.0001)                       2
(PID.TID 0000.0001)     ;
(PID.TID 0000.0001) mxlSurfFlag =   /* GGL90 flag for near surface mixing. */
(PID.TID 0000.0001)                   T
(PID.TID 0000.0001)     ;
(PID.TID 0000.0001) calcMeanVertShear = /* calc Mean of Vert.Shear (vs shear of Mean flow) */
(PID.TID 0000.0001)                   F
(PID.TID 0000.0001)     ;
(PID.TID 0000.0001) GGL90: GGL90TKEFile =
(PID.TID 0000.0001) GGL90writeState =   /* GGL90 Boundary condition flag. */
(PID.TID 0000.0001)                   T
(PID.TID 0000.0001)     ;
(PID.TID 0000.0001) // =======================================================
(PID.TID 0000.0001) // End of GGL90 config. summary
(PID.TID 0000.0001) // =======================================================
(PID.TID 0000.0001) 
(PID.TID 0000.0001)  GM_READPARMS: opening data.gmredi
(PID.TID 0000.0001)  OPEN_COPY_DATA_FILE: opening file data.gmredi
(PID.TID 0000.0001) // =======================================================
(PID.TID 0000.0001) // Parameter file "data.gmredi"
(PID.TID 0000.0001) // =======================================================
(PID.TID 0000.0001) ># GM+Redi package parameters:
(PID.TID 0000.0001) >#     GM_Small_Number  :: epsilon used in computing the slope
(PID.TID 0000.0001) >#     GM_slopeSqCutoff :: slope^2 cut-off value
(PID.TID 0000.0001) >
(PID.TID 0000.0001) >#-from MOM :
(PID.TID 0000.0001) ># GM_background_K: 	G & Mc.W  diffusion coefficient
(PID.TID 0000.0001) ># GM_maxSlope    :	max slope of isopycnals
(PID.TID 0000.0001) ># GM_Scrit       :	transition for scaling diffusion coefficient
(PID.TID 0000.0001) ># GM_Sd          :	half width scaling for diffusion coefficient
(PID.TID 0000.0001) ># GM_taper_scheme:	slope clipping or one of the tapering schemes
(PID.TID 0000.0001) ># GM_Kmin_horiz  :	horizontal diffusion minimum value
(PID.TID 0000.0001) >
(PID.TID 0000.0001) >#-Option parameters (needs to "define" options in GMREDI_OPTIONS.h")
(PID.TID 0000.0001) ># GM_isopycK     :	isopycnal diffusion coefficient (default=GM_background_K)
(PID.TID 0000.0001) ># GM_AdvForm     :	turn on GM Advective form       (default=Skew flux form)
(PID.TID 0000.0001) >
(PID.TID 0000.0001) > &GM_PARM01
(PID.TID 0000.0001) >  GM_Small_Number  = 1.D-20,
(PID.TID 0000.0001) >  GM_slopeSqCutoff = 1.D+08,
(PID.TID 0000.0001) >  GM_AdvForm         = .TRUE.,
(PID.TID 0000.0001) >  GM_isopycK         = 100.,
(PID.TID 0000.0001) >  GM_background_K    = 100.,
(PID.TID 0000.0001) >  GM_maxSlope        = 4.D-3,
(PID.TID 0000.0001) >  GM_taper_scheme    = 'stableGmAdjTap',
(PID.TID 0000.0001) >  GM_Kmin_horiz      = 10.,
(PID.TID 0000.0001) >  GM_Scrit           = 4.D-3,
(PID.TID 0000.0001) >  GM_Sd              = 1.D-3,
(PID.TID 0000.0001) >#
(PID.TID 0000.0001) >###  GM_Visbeck_alpha   = 1.5D-2,
(PID.TID 0000.0001) >###  GM_Visbeck_alpha   = 0.D0,
(PID.TID 0000.0001) >###  GM_Visbeck_length  = 2.D+5,
(PID.TID 0000.0001) >###  GM_Visbeck_depth   = 1.D+3,
(PID.TID 0000.0001) >###  GM_Visbeck_maxval_K= 2.5D+3,
(PID.TID 0000.0001) > /
(PID.TID 0000.0001) >
(PID.TID 0000.0001) >
(PID.TID 0000.0001) 
(PID.TID 0000.0001)  GM_READPARMS: finished reading data.gmredi
(PID.TID 0000.0001)  PTRACERS_READPARMS: opening data.ptracers
(PID.TID 0000.0001)  OPEN_COPY_DATA_FILE: opening file data.ptracers
(PID.TID 0000.0001) // =======================================================
(PID.TID 0000.0001) // Parameter file "data.ptracers"
(PID.TID 0000.0001) // =======================================================
(PID.TID 0000.0001) > &PTRACERS_PARM01
(PID.TID 0000.0001) > PTRACERS_numInUse=39,
(PID.TID 0000.0001) > PTRACERS_advScheme(1)=39*33,
(PID.TID 0000.0001) > PTRACERS_diffKh(1)=39*0.E3,
(PID.TID 0000.0001) > PTRACERS_diffKr(1)=39*1.E-5,
(PID.TID 0000.0001) > PTRACERS_useGMRedi(1)=39*.TRUE. ,
(PID.TID 0000.0001) ># tracer 1 - phosphate
(PID.TID 0000.0001) > PTRACERS_names(1)='PO4',
(PID.TID 0000.0001) > PTRACERS_units(1)='mmol P/m^3',
(PID.TID 0000.0001) ># tracer 2 - nitrate
(PID.TID 0000.0001) > PTRACERS_names(2)='NO3',
(PID.TID 0000.0001) > PTRACERS_units(2)='mmol N/m^3',
(PID.TID 0000.0001) ># tracer 3 - dissolved iron
(PID.TID 0000.0001) > PTRACERS_names(3)='FeT',
(PID.TID 0000.0001) > PTRACERS_units(3)='mmol Fe/m^3',
(PID.TID 0000.0001) ># tracer 4 - silicic acid
(PID.TID 0000.0001) > PTRACERS_names(4)='SiO2',
(PID.TID 0000.0001) > PTRACERS_units(4)='mmol Si/m^3',
(PID.TID 0000.0001) ># tracer 5 - DOP
(PID.TID 0000.0001) > PTRACERS_names(5)='DOP',
(PID.TID 0000.0001) > PTRACERS_units(5)='mmol P/m^3',
(PID.TID 0000.0001) ># tracer 6 - DON
(PID.TID 0000.0001) > PTRACERS_names(6)='DON',
(PID.TID 0000.0001) > PTRACERS_units(6)='mmol N/m^3',
(PID.TID 0000.0001) ># tracer 7 - DOFe
(PID.TID 0000.0001) > PTRACERS_names(7)='DOFe',
(PID.TID 0000.0001) > PTRACERS_units(7)='mmol Fe/m^3',
(PID.TID 0000.0001) ># tracer 8 - ZOO1P
(PID.TID 0000.0001) > PTRACERS_names(8)='ZOO1P',
(PID.TID 0000.0001) > PTRACERS_units(8)='mmol P/m^3',
(PID.TID 0000.0001) ># tracer 9 - ZOO1N
(PID.TID 0000.0001) > PTRACERS_names(9)='ZOO1N',
(PID.TID 0000.0001) > PTRACERS_units(9)='mmol N/m^3'
(PID.TID 0000.0001) ># tracer 10 - ZOO1Fe
(PID.TID 0000.0001) > PTRACERS_names(10)='ZOO1Fe',
(PID.TID 0000.0001) > PTRACERS_units(10)='mmol Fe/m^3'
(PID.TID 0000.0001) ># tracer 11 - ZOO1Si
(PID.TID 0000.0001) > PTRACERS_names(11)='ZOO1Si',
(PID.TID 0000.0001) > PTRACERS_units(11)='mmol Si/m^3'
(PID.TID 0000.0001) ># tracer 12 - ZOO2P
(PID.TID 0000.0001) > PTRACERS_names(12)='ZOO2P',
(PID.TID 0000.0001) > PTRACERS_units(12)='mmol P/m^3',
(PID.TID 0000.0001) ># tracer 13 - ZOO2N
(PID.TID 0000.0001) > PTRACERS_names(13)='ZOO2N',
(PID.TID 0000.0001) > PTRACERS_units(13)='mmol N/m^3'
(PID.TID 0000.0001) ># tracer 14 - ZOO2Fe
(PID.TID 0000.0001) > PTRACERS_names(14)='ZOO2Fe',
(PID.TID 0000.0001) > PTRACERS_units(14)='mmol Fe/m^3'
(PID.TID 0000.0001) ># tracer 15 - ZOO2Si
(PID.TID 0000.0001) > PTRACERS_names(15)='ZOO2Si',
(PID.TID 0000.0001) > PTRACERS_units(15)='mmol Si/m^3'
(PID.TID 0000.0001) ># tracer 16 - POP
(PID.TID 0000.0001) > PTRACERS_names(16)='POP',
(PID.TID 0000.0001) > PTRACERS_units(16)='mmol P/m^3',
(PID.TID 0000.0001) ># tracer 17 - PON
(PID.TID 0000.0001) > PTRACERS_names(17)='PON',
(PID.TID 0000.0001) > PTRACERS_units(17)='mmol N/m^3',
(PID.TID 0000.0001) ># tracer 18 - POFe
(PID.TID 0000.0001) > PTRACERS_names(18)='POFe',
(PID.TID 0000.0001) > PTRACERS_units(18)='mmol Fe/m^3'
(PID.TID 0000.0001) ># tracer 19 - POSi
(PID.TID 0000.0001) > PTRACERS_names(19)='POSi',
(PID.TID 0000.0001) > PTRACERS_units(19)='mmol Si/m^3'
(PID.TID 0000.0001) ># tracer 20 - NH4
(PID.TID 0000.0001) > PTRACERS_names(20)='NH4',
(PID.TID 0000.0001) > PTRACERS_units(20)='mmol N/m^3'
(PID.TID 0000.0001) ># tracer 21 - NO2
(PID.TID 0000.0001) > PTRACERS_names(21)='NO2',
(PID.TID 0000.0001) > PTRACERS_units(21)='mmol N/m^3'
(PID.TID 0000.0001) ># tracer 22 - PHYT01
(PID.TID 0000.0001) > PTRACERS_names(22)='Phy01',
(PID.TID 0000.0001) > PTRACERS_units(22)='mmol P/m^3'
(PID.TID 0000.0001) ># tracer 23 - PHYT02
(PID.TID 0000.0001) > PTRACERS_names(23)='Phy02',
(PID.TID 0000.0001) > PTRACERS_units(23)='mmol P/m^3'
(PID.TID 0000.0001) ># tracer 24 - PHYT03
(PID.TID 0000.0001) > PTRACERS_names(24)='Phy03',
(PID.TID 0000.0001) > PTRACERS_units(24)='mmol P/m^3'
(PID.TID 0000.0001) ># tracer 25 - PHYT04
(PID.TID 0000.0001) > PTRACERS_names(25)='Phy04',
(PID.TID 0000.0001) > PTRACERS_units(25)='mmol P/m^3'
(PID.TID 0000.0001) ># tracer 26 - PHYT05
(PID.TID 0000.0001) > PTRACERS_names(26)='Phy05',
(PID.TID 0000.0001) > PTRACERS_units(26)='mmol P/m^3'
(PID.TID 0000.0001) ># tracer 27 - CHL01
(PID.TID 0000.0001) > PTRACERS_names(27)='Chl01',
(PID.TID 0000.0001) > PTRACERS_units(27)='mg Chla/m^3'
(PID.TID 0000.0001) ># tracer 28 - CHL02
(PID.TID 0000.0001) > PTRACERS_names(28)='Chl02',
(PID.TID 0000.0001) > PTRACERS_units(28)='mg Chla/m^3'
(PID.TID 0000.0001) ># tracer 29 - CHL03
(PID.TID 0000.0001) > PTRACERS_names(29)='Chl03',
(PID.TID 0000.0001) > PTRACERS_units(29)='mg Chla/m^3'
(PID.TID 0000.0001) ># tracer 30 - CHL04
(PID.TID 0000.0001) > PTRACERS_names(30)='Chl04',
(PID.TID 0000.0001) > PTRACERS_units(30)='mg Chla/m^3'
(PID.TID 0000.0001) ># tracer 31 - CHL05
(PID.TID 0000.0001) > PTRACERS_names(31)='Chl05',
(PID.TID 0000.0001) > PTRACERS_units(31)='mg Chla/m^3'
(PID.TID 0000.0001) ># tracer 32 - DIC
(PID.TID 0000.0001) > PTRACERS_names(32)='DIC',
(PID.TID 0000.0001) > PTRACERS_units(32)='mmol C/m^3'
(PID.TID 0000.0001) > PTRACERS_EvPrRn(32)= 0.
(PID.TID 0000.0001) ># tracer 33 - DOC
(PID.TID 0000.0001) > PTRACERS_names(33)='DOC',
(PID.TID 0000.0001) > PTRACERS_units(33)='mmol C/m^3'
(PID.TID 0000.0001) ># tracer 34 - POC
(PID.TID 0000.0001) > PTRACERS_names(34)='POC',
(PID.TID 0000.0001) > PTRACERS_units(34)='mmol C/m^3'
(PID.TID 0000.0001) ># tracer 35 - PIC
(PID.TID 0000.0001) > PTRACERS_names(35)='PIC',
(PID.TID 0000.0001) > PTRACERS_units(35)='mmol C/m^3'
(PID.TID 0000.0001) ># tracer 36 - ALK
(PID.TID 0000.0001) > PTRACERS_names(36)='ALK',
(PID.TID 0000.0001) > PTRACERS_units(36)='mmol eq/m^3'
(PID.TID 0000.0001) > PTRACERS_EvPrRn(36)= 0.
(PID.TID 0000.0001) ># tracer 37 - O2
(PID.TID 0000.0001) > PTRACERS_names(37)='O2',
(PID.TID 0000.0001) > PTRACERS_units(37)='mmol O/m^3'
(PID.TID 0000.0001) ># tracer 38 - ZOOC1
(PID.TID 0000.0001) > PTRACERS_names(38)='ZOOC1',
(PID.TID 0000.0001) > PTRACERS_units(38)='mmol C/m^3'
(PID.TID 0000.0001) ># tracer 39 - ZOOC2
(PID.TID 0000.0001) > PTRACERS_names(39)='ZOOC2',
(PID.TID 0000.0001) > PTRACERS_units(39)='mmol C/m^3'
(PID.TID 0000.0001) > &
(PID.TID 0000.0001) 
(PID.TID 0000.0001)  PTRACERS_READPARMS: finished reading data.ptracers
(PID.TID 0000.0001)  GCHEM_READPARMS: opening data.gchem
(PID.TID 0000.0001)  OPEN_COPY_DATA_FILE: opening file data.gchem
(PID.TID 0000.0001) // =======================================================
(PID.TID 0000.0001) // Parameter file "data.gchem"
(PID.TID 0000.0001) // =======================================================
(PID.TID 0000.0001) > &GCHEM_PARM01
(PID.TID 0000.0001) > useDARWIN=.TRUE.,
(PID.TID 0000.0001) >  nsubtime=1,
(PID.TID 0000.0001) > /
(PID.TID 0000.0001) 
(PID.TID 0000.0001)  GCHEM_READPARMS: finished reading data.gchem
(PID.TID 0000.0001)  DARWIN_READPARMS: opening data.darwin
(PID.TID 0000.0001)  OPEN_COPY_DATA_FILE: opening file data.darwin
(PID.TID 0000.0001) // =======================================================
(PID.TID 0000.0001) // Parameter file "data.darwin"
(PID.TID 0000.0001) // =======================================================
(PID.TID 0000.0001) > &DARWIN_FORCING
(PID.TID 0000.0001) > darwin_IronFile='llc270_Mahowald_2009_soluble_iron_dust.bin',
(PID.TID 0000.0001) > darwin_forcingPeriod=2629800.,
(PID.TID 0000.0001) > darwin_forcingCycle=31557600.,
(PID.TID 0000.0001) > darwin_seed=56,
(PID.TID 0000.0001) > /
(PID.TID 0000.0001) >
(PID.TID 0000.0001) > &DIC_FORCING
(PID.TID 0000.0001) >#DIC_windFile  = 'input/tren_speed_mth-2d.bin',
(PID.TID 0000.0001) >#DIC_atmospFile= ' ',
(PID.TID 0000.0001) > dic_int1=2,
(PID.TID 0000.0001) > dic_pCO2=370.D-6,
(PID.TID 0000.0001) > /
(PID.TID 0000.0001) >
(PID.TID 0000.0001) 
(PID.TID 0000.0001)  DARWIN_READPARMS: finished reading data.darwin
(PID.TID 0000.0001) // ===================================
(PID.TID 0000.0001) // darwin parameters
(PID.TID 0000.0001) // ===================================
(PID.TID 0000.0001) darwin_seed = /* seed for random number generator */
(PID.TID 0000.0001)                      56
(PID.TID 0000.0001)     ;
(PID.TID 0000.0001)  -----------------------------------
(PID.TID 0000.0001)  ===================================
(PID.TID 0000.0001) 
(PID.TID 0000.0001)  SEAICE_READPARMS: opening data.seaice
(PID.TID 0000.0001)  OPEN_COPY_DATA_FILE: opening file data.seaice
(PID.TID 0000.0001) // =======================================================
(PID.TID 0000.0001) // Parameter file "data.seaice"
(PID.TID 0000.0001) // =======================================================
(PID.TID 0000.0001) ># SEAICE parameters
(PID.TID 0000.0001) > &SEAICE_PARM01
(PID.TID 0000.0001) >      SEAICEuseTILT=.FALSE.,
(PID.TID 0000.0001) >      SEAICEpresH0=2.,
(PID.TID 0000.0001) >      SEAICEpresPow0=1,
(PID.TID 0000.0001) >      SEAICEpresPow1=3,
(PID.TID 0000.0001) >      SEAICE_multDim=1,
(PID.TID 0000.0001) >      SEAICErestoreUnderIce=.TRUE.,
(PID.TID 0000.0001) >      SEAICE_area_max=0.95,
(PID.TID 0000.0001) >#for backward compatibility (before 2011 june 19, those were the defaults)
(PID.TID 0000.0001) >#     SEAICE_area_floor=0.15,
(PID.TID 0000.0001) >#     SEAICE_area_reg=0.15,
(PID.TID 0000.0001) >      SEAICE_salt0=4.,
(PID.TID 0000.0001) ># for long time step:
(PID.TID 0000.0001) >#      SEAICE_deltaTevp   = 720.,
(PID.TID 0000.0001) ># for regular time step:
(PID.TID 0000.0001) >#      SEAICE_deltaTevp   = 60.,
(PID.TID 0000.0001) ># for lsr:
(PID.TID 0000.0001) >      LSR_ERROR          = 2.e-4,
(PID.TID 0000.0001) >      SEAICEuseDYNAMICS  = .TRUE.,
(PID.TID 0000.0001) ># BAD OPTION -- DO NOT USE -- SEAICE_maskRHS     = .TRUE.,
(PID.TID 0000.0001) >      MIN_ATEMP          = -40.,
(PID.TID 0000.0001) >      MIN_TICE           = -40.,
(PID.TID 0000.0001) >      SEAICEadvScheme    = 30,
(PID.TID 0000.0001) >      SEAICEuseFluxForm = .TRUE.,
(PID.TID 0000.0001) >      SEAICEadvSnow      = .TRUE.,
(PID.TID 0000.0001) >#      SEAICEadvSalt      = .TRUE.,
(PID.TID 0000.0001) >      SEAICEdiffKhHeff   = 400.,
(PID.TID 0000.0001) >      SEAICEdiffKhArea   = 400.,
(PID.TID 0000.0001) >      SEAICEdiffKhSnow   = 400.,
(PID.TID 0000.0001) >#      SEAICEdiffKhSalt   = 400.,
(PID.TID 0000.0001) >      SEAICEuseFlooding  = .TRUE.,
(PID.TID 0000.0001) >      SEAICE_mcPheePiston= 3.858024691358025E-05,
(PID.TID 0000.0001) >      SEAICE_frazilFrac  = 1.,
(PID.TID 0000.0001) >      SEAICE_mcPheeTaper = 0.,
(PID.TID 0000.0001) >      SEAICE_areaLossFormula=2,
(PID.TID 0000.0001) >      SEAICEheatConsFix  = .TRUE.,
(PID.TID 0000.0001) >      SEAICE_tempFrz0    = -1.96,
(PID.TID 0000.0001) >      SEAICE_dTempFrz_dS = 0.,
(PID.TID 0000.0001) >      SEAICEuseMetricTerms = .TRUE.,
(PID.TID 0000.0001) >      SEAICE_no_slip     = .FALSE.,
(PID.TID 0000.0001) >      SEAICE_clipVelocities = .TRUE.,
(PID.TID 0000.0001) >#take 33% out of (1-albedo)
(PID.TID 0000.0001) >      SEAICE_dryIceAlb   = 0.84,
(PID.TID 0000.0001) >      SEAICE_wetIceAlb   = 0.78,
(PID.TID 0000.0001) >      SEAICE_drySnowAlb  = 0.90,
(PID.TID 0000.0001) >      SEAICE_wetSnowAlb  = 0.8 ,
(PID.TID 0000.0001) >#default albedos
(PID.TID 0000.0001) >      SEAICE_dryIceAlb_south   = 0.75
(PID.TID 0000.0001) >      SEAICE_wetIceAlb_south   = 0.66
(PID.TID 0000.0001) >      SEAICE_drySnowAlb_south  = 0.84
(PID.TID 0000.0001) >      SEAICE_wetSnowAlb_south  = 0.7
(PID.TID 0000.0001) > /
(PID.TID 0000.0001) >#
(PID.TID 0000.0001) > &SEAICE_PARM02
(PID.TID 0000.0001) > /
(PID.TID 0000.0001) >
(PID.TID 0000.0001) 
(PID.TID 0000.0001)  SEAICE_READPARMS: finished reading data.seaice
(PID.TID 0000.0001) SALT_PLUME_READPARMS: opening data.salt_plume
(PID.TID 0000.0001)  OPEN_COPY_DATA_FILE: opening file data.salt_plume
(PID.TID 0000.0001) // =======================================================
(PID.TID 0000.0001) // Parameter file "data.salt_plume"
(PID.TID 0000.0001) // =======================================================
(PID.TID 0000.0001) > &SALT_PLUME_PARM01
(PID.TID 0000.0001) > SPsalFRAC= 0.5D0,
(PID.TID 0000.0001) > &
(PID.TID 0000.0001) 
(PID.TID 0000.0001) SALT_PLUME_READPARMS: finished reading data.salt_plume
(PID.TID 0000.0001) OPTIM_READPARMS: opening data.optim
(PID.TID 0000.0001)  OPEN_COPY_DATA_FILE: opening file data.optim
(PID.TID 0000.0001) // =======================================================
(PID.TID 0000.0001) // Parameter file "data.optim"
(PID.TID 0000.0001) // =======================================================
(PID.TID 0000.0001) >#
(PID.TID 0000.0001) ># ********************************
(PID.TID 0000.0001) ># Off-line optimization parameters
(PID.TID 0000.0001) ># ********************************
(PID.TID 0000.0001) > &OPTIM
(PID.TID 0000.0001) > optimcycle=42,
(PID.TID 0000.0001) > /
(PID.TID 0000.0001) 
(PID.TID 0000.0001) OPTIM_READPARMS: finished reading data.optim
(PID.TID 0000.0001) CTRL_READPARMS: opening data.ctrl
(PID.TID 0000.0001)  OPEN_COPY_DATA_FILE: opening file data.ctrl
(PID.TID 0000.0001) // =======================================================
(PID.TID 0000.0001) // Parameter file "data.ctrl"
(PID.TID 0000.0001) // =======================================================
(PID.TID 0000.0001) ># *********************
(PID.TID 0000.0001) ># ECCO control variables
(PID.TID 0000.0001) ># *********************
(PID.TID 0000.0001) > &ctrl_nml
(PID.TID 0000.0001) > doSinglePrecTapelev=.TRUE.,
(PID.TID 0000.0001) > ctrlSmoothCorrel2D=.TRUE.,
(PID.TID 0000.0001) > ctrlSmoothCorrel3D=.TRUE.,
(PID.TID 0000.0001) >#to start from given xx*00.data files
(PID.TID 0000.0001) >  doinitxx = .TRUE.,
(PID.TID 0000.0001) >  doMainUnpack = .FALSE.,
(PID.TID 0000.0001) >  doMainPack = .FALSE.,
(PID.TID 0000.0001) >#to start from given ecco_ctrl... files
(PID.TID 0000.0001) ># doinitxx = .FALSE.,
(PID.TID 0000.0001) > &
(PID.TID 0000.0001) >#
(PID.TID 0000.0001) ># *********************
(PID.TID 0000.0001) ># names for ctrl_pack/unpack
(PID.TID 0000.0001) ># *********************
(PID.TID 0000.0001) > &ctrl_packnames
(PID.TID 0000.0001) > &
(PID.TID 0000.0001) >#
(PID.TID 0000.0001) ># *********************
(PID.TID 0000.0001) ># names for CTRL_GENARR2D,3D CTRL_GENTIM2D
(PID.TID 0000.0001) ># *********************
(PID.TID 0000.0001) > &CTRL_NML_GENARR
(PID.TID 0000.0001) > xx_gentim2d_weight(1) = 'wprecip.data',
(PID.TID 0000.0001) > xx_gentim2d_file(1)='xx_precip',
(PID.TID 0000.0001) > xx_gentim2d_startdate1(1)=19920101,
(PID.TID 0000.0001) > xx_gentim2d_startdate2(1)=60000,
(PID.TID 0000.0001) > xx_gentim2d_period(1)=1209600.0,
(PID.TID 0000.0001) > xx_gentim2d_preproc(1,1)='WC01',
(PID.TID 0000.0001) > mult_gentim2d(1) = 0.,
(PID.TID 0000.0001) >#
(PID.TID 0000.0001) > xx_gentim2d_weight(2) = 'wlwdown.data',
(PID.TID 0000.0001) > xx_gentim2d_file(2)='xx_lwdown',
(PID.TID 0000.0001) > xx_gentim2d_startdate1(2)=19920101,
(PID.TID 0000.0001) > xx_gentim2d_startdate2(2)=60000,
(PID.TID 0000.0001) > xx_gentim2d_period(2)=1209600.0,
(PID.TID 0000.0001) > xx_gentim2d_preproc(1,2)='WC01',
(PID.TID 0000.0001) > mult_gentim2d(2) = 0.,
(PID.TID 0000.0001) >#
(PID.TID 0000.0001) > xx_gentim2d_weight(3) = 'wswdown.data',
(PID.TID 0000.0001) > xx_gentim2d_file(3)='xx_swdown',
(PID.TID 0000.0001) > xx_gentim2d_startdate1(3)=19920101,
(PID.TID 0000.0001) > xx_gentim2d_startdate2(3)=60000,
(PID.TID 0000.0001) > xx_gentim2d_period(3)=1209600.0,
(PID.TID 0000.0001) > xx_gentim2d_preproc(1,3)='WC01',
(PID.TID 0000.0001) > mult_gentim2d(3) = 0.,
(PID.TID 0000.0001) >#
(PID.TID 0000.0001) > xx_gentim2d_weight(4) = 'waqh.data',
(PID.TID 0000.0001) > xx_gentim2d_file(4)='xx_aqh',
(PID.TID 0000.0001) > xx_gentim2d_startdate1(4)=19920101,
(PID.TID 0000.0001) > xx_gentim2d_startdate2(4)=60000,
(PID.TID 0000.0001) > xx_gentim2d_period(4)=1209600.0,
(PID.TID 0000.0001) > xx_gentim2d_preproc(1,4)='WC01',
(PID.TID 0000.0001) > mult_gentim2d(4) = 0.,
(PID.TID 0000.0001) >#
(PID.TID 0000.0001) > xx_gentim2d_weight(5) = 'watemp.data',
(PID.TID 0000.0001) > xx_gentim2d_file(5)='xx_atemp',
(PID.TID 0000.0001) > xx_gentim2d_startdate1(5)=19920101,
(PID.TID 0000.0001) > xx_gentim2d_startdate2(5)=60000,
(PID.TID 0000.0001) > xx_gentim2d_period(5)=1209600.0,
(PID.TID 0000.0001) > xx_gentim2d_preproc(1,5)='WC01',
(PID.TID 0000.0001) > mult_gentim2d(5) = 0.,
(PID.TID 0000.0001) >#
(PID.TID 0000.0001) > xx_gentim2d_weight(6) = 'wuwind.data',
(PID.TID 0000.0001) > xx_gentim2d_file(6)='xx_uwind',
(PID.TID 0000.0001) > xx_gentim2d_startdate1(6)=19920101,
(PID.TID 0000.0001) > xx_gentim2d_startdate2(6)=60000,
(PID.TID 0000.0001) > xx_gentim2d_period(6)=1209600.0,
(PID.TID 0000.0001) > xx_gentim2d_preproc(1,6)='WC01',
(PID.TID 0000.0001) > mult_gentim2d(6) = 0.,
(PID.TID 0000.0001) >#
(PID.TID 0000.0001) > xx_gentim2d_weight(7) = 'wvwind.data',
(PID.TID 0000.0001) > xx_gentim2d_file(7)='xx_vwind',
(PID.TID 0000.0001) > xx_gentim2d_startdate1(7)=19920101,
(PID.TID 0000.0001) > xx_gentim2d_startdate2(7)=60000,
(PID.TID 0000.0001) > xx_gentim2d_period(7)=1209600.0,
(PID.TID 0000.0001) > xx_gentim2d_preproc(1,7)='WC01',
(PID.TID 0000.0001) > mult_gentim2d(7) = 0.,
(PID.TID 0000.0001) >#
(PID.TID 0000.0001) > xx_genarr3d_weight(1) = 'wkapgmFld.data',
(PID.TID 0000.0001) > xx_genarr3d_file(1)='xx_kapgm',
(PID.TID 0000.0001) > xx_genarr3d_preproc(1,1)='WC01',
(PID.TID 0000.0001) > xx_genarr3d_bounds(1:5,1)=1.E2,2.E2,0.9E4,1.E4,0.,
(PID.TID 0000.0001) > mult_genarr3d(1) = 0.,
(PID.TID 0000.0001) >#
(PID.TID 0000.0001) > xx_genarr3d_weight(2) = 'wkaprediFld.data',
(PID.TID 0000.0001) > xx_genarr3d_file(2)='xx_kapredi',
(PID.TID 0000.0001) > xx_genarr3d_preproc(1,2)='WC01',
(PID.TID 0000.0001) > xx_genarr3d_bounds(1:5,2)=1.E2,2.E2,0.9E4,1.E4,0.,
(PID.TID 0000.0001) > mult_genarr3d(2) = 0.,
(PID.TID 0000.0001) >#
(PID.TID 0000.0001) > xx_genarr3d_weight(3) = 'wdiffkrFld.data',
(PID.TID 0000.0001) > xx_genarr3d_file(3)='xx_diffkr',
(PID.TID 0000.0001) > xx_genarr3d_preproc(1,3)='WC01',
(PID.TID 0000.0001) > xx_genarr3d_bounds(1:5,3)=1.E-6,2.E-6,4.E-4,5.E-4,0.,
(PID.TID 0000.0001) > mult_genarr3d(3) = 0.,
(PID.TID 0000.0001) >#
(PID.TID 0000.0001) > &
(PID.TID 0000.0001) 
(PID.TID 0000.0001) CTRL_READPARMS: finished reading data.ctrl
(PID.TID 0000.0001) SMOOTH_READPARMS: opening data.smooth
(PID.TID 0000.0001)  OPEN_COPY_DATA_FILE: opening file data.smooth
(PID.TID 0000.0001) // =======================================================
(PID.TID 0000.0001) // Parameter file "data.smooth"
(PID.TID 0000.0001) // =======================================================
(PID.TID 0000.0001) > &SMOOTH_NML
(PID.TID 0000.0001) > smooth2Dnbt(1)=1000
(PID.TID 0000.0001) > smooth2Dtype(1)=1
(PID.TID 0000.0001) > smooth2Dsize(1)=2
(PID.TID 0000.0001) > smooth2Dfilter(1)=0
(PID.TID 0000.0001) > smooth3Dnbt(1)=1000
(PID.TID 0000.0001) > smooth3DtypeH(1)=1
(PID.TID 0000.0001) > smooth3DsizeH(1)=3
(PID.TID 0000.0001) > smooth3DtypeZ(1)=1
(PID.TID 0000.0001) > smooth3DsizeZ(1)=3
(PID.TID 0000.0001) > smooth3Dfilter(1)=0
(PID.TID 0000.0001) > /
(PID.TID 0000.0001) 
(PID.TID 0000.0001) SMOOTH_READPARMS: finished reading data.smooth
(PID.TID 0000.0001) // =======================================================
(PID.TID 0000.0001) // pkg/smooth configuration
(PID.TID 0000.0001) // =======================================================
(PID.TID 0000.0001) smooth 2D parameters:  1  1000    0.    0.
(PID.TID 0000.0001) smooth 3D parameters:  1  1000    0.    0.    0.
(PID.TID 0000.0001) // =======================================================
(PID.TID 0000.0001) // End of pkg/smooth config. summary
(PID.TID 0000.0001) // =======================================================
(PID.TID 0000.0001) 
(PID.TID 0000.0001)  DIAGNOSTICS_READPARMS: opening data.diagnostics
(PID.TID 0000.0001)  OPEN_COPY_DATA_FILE: opening file data.diagnostics
(PID.TID 0000.0001) // =======================================================
(PID.TID 0000.0001) // Parameter file "data.diagnostics"
(PID.TID 0000.0001) // =======================================================
(PID.TID 0000.0001) ># Diagnostic Package Choices
(PID.TID 0000.0001) >#-----------------
(PID.TID 0000.0001) ># for each output-stream:
(PID.TID 0000.0001) >#  filename(n) : prefix of the output file name (only 8.c long) for outp.stream n
(PID.TID 0000.0001) >#  frequency(n):< 0 : write snap-shot output every multiple of |frequency| (iter)
(PID.TID 0000.0001) >#               > 0 : write time-average output every multiple of frequency (iter)
(PID.TID 0000.0001) >#  levels(:,n) : list of levels to write to file (Notes: declared as REAL)
(PID.TID 0000.0001) >#                 when this entry is missing, select all common levels of this list
(PID.TID 0000.0001) >#  fields(:,n) : list of diagnostics fields (8.c) (see "available_diagnostics" file
(PID.TID 0000.0001) >#                 for the list of all available diag. in this particular config)
(PID.TID 0000.0001) >#--------------------------------------------------------------------
(PID.TID 0000.0001) >#
(PID.TID 0000.0001) ># 6-hourly 2-D fields:
(PID.TID 0000.0001) ># ====================
(PID.TID 0000.0001) >#
(PID.TID 0000.0001) ># ETAN     Perturbation of Surface (pressure, height) (Pa,m)
(PID.TID 0000.0001) ># PHIBOT   ocean bottom pressure / top. atmos geo-Potential
(PID.TID 0000.0001) ># oceTAUX  zonal surface wind stress, >0 increases uVel (N/m^2)
(PID.TID 0000.0001) ># oceTAUY  meridional surf. wind stress, >0 increases vVel (N/m^2)
(PID.TID 0000.0001) ># surForcT model surface forcing for Temperature, >0 increases theta (W/m^2)
(PID.TID 0000.0001) ># oceQsw   net Short-Wave radiation (+=down), >0 increases theta (W/m^2)
(PID.TID 0000.0001) ># surForcS model surface forcing for Salinity, >0 increases salinity (g/m^2/s)
(PID.TID 0000.0001) ># KPPhbl   KPP boundary layer depth, bulk Ri criterion
(PID.TID 0000.0001) ># KPPmld   Mixed layer depth, dT=.8degC density criterion
(PID.TID 0000.0001) ># SSS      Sea Surface Salinity (g/kg)
(PID.TID 0000.0001) ># SST      Sea Surface Temperature (degC,K)
(PID.TID 0000.0001) ># UVEL_k2  Zonal Component of Velocity at level 2 (m/s)
(PID.TID 0000.0001) ># VVEL_k2  Meridional Component of Velocity at level 2 (m/s)
(PID.TID 0000.0001) >#
(PID.TID 0000.0001) ># daily 2-D fields:
(PID.TID 0000.0001) ># =================
(PID.TID 0000.0001) >#
(PID.TID 0000.0001) ># SIarea   SEAICE fractional ice-covered area [0 to 1]
(PID.TID 0000.0001) ># SIheff   SEAICE effective ice thickness (m)
(PID.TID 0000.0001) ># SIuice   SEAICE zonal ice velocity, >0 from West to East (m/s)
(PID.TID 0000.0001) ># SIvice   SEAICE merid. ice velocity, >0 from South to North (m/s)
(PID.TID 0000.0001) ># SIhsnow  SEAICE snow thickness (m)
(PID.TID 0000.0001) ># SIhsalt  SEAICE effective salinity (g/m^2)
(PID.TID 0000.0001) >#
(PID.TID 0000.0001) ># monthly 2-D fields:
(PID.TID 0000.0001) ># ===================
(PID.TID 0000.0001) >#
(PID.TID 0000.0001) ># ETANSQ   Square of Perturbation of Sfc (Pa2,m2)
(PID.TID 0000.0001) ># EXFhs    Sensible heat flux into ocean, >0 increases theta (W/m^2)
(PID.TID 0000.0001) ># EXFhl    Latent heat flux into ocean, >0 increases theta (W/m^2)
(PID.TID 0000.0001) ># EXFlwnet Net upward longwave radiation, >0 decreases theta (W/m^2)
(PID.TID 0000.0001) ># oceFWflx net surface Fresh-Water flux into ocean, >0 decreases salinity (kg/m^2/s)
(PID.TID 0000.0001) ># oceSflux net surface Salt flux into the ocean, >0 increases salinity (g/m^2/s)
(PID.TID 0000.0001) ># oceQnet  net surface heat flux into the ocean, >0 increases theta (W/m^2)
(PID.TID 0000.0001) ># SRELAX   surface salinity relaxation, >0 increases salt (g/m^2/s)
(PID.TID 0000.0001) ># TFLUX    total heat flux (match heat-content variations), >0 increases theta (W/m^2)
(PID.TID 0000.0001) ># SFLUX    total salt flux (match salt-content variations), >0 increases salt (g/m^2/s)
(PID.TID 0000.0001) >#
(PID.TID 0000.0001) ># monthly 3-D fields:
(PID.TID 0000.0001) ># ===================
(PID.TID 0000.0001) >#
(PID.TID 0000.0001) ># SALTanom Salt anomaly (=SALT-35; g/kg)
(PID.TID 0000.0001) ># THETA    Potential Temperature (degC,K)
(PID.TID 0000.0001) ># UVELMASS Zonal Mass-Weighted Comp of Velocity (m/s)
(PID.TID 0000.0001) ># VVELMASS Meridional Mass-Weighted Comp of Velocity (m/s)
(PID.TID 0000.0001) ># WVELMASS Vertical Mass-Weighted Comp of Velocity (m/s)
(PID.TID 0000.0001) >#
(PID.TID 0000.0001) ># SALTSQan Square of Salt anomaly (=(SALT-35)^2 (g^2/kg^2)
(PID.TID 0000.0001) ># THETASQ  Square of Potential Temperature (K2)
(PID.TID 0000.0001) ># UVELSQ   Square of Zonal Comp of Velocity (m2/s2)
(PID.TID 0000.0001) ># VVELSQ   Square of Meridional Comp of Velocity (m2/s2)
(PID.TID 0000.0001) ># WVELSQ   Square of Vertical Comp of Velocity (m2/s2)
(PID.TID 0000.0001) ># UV_VEL_Z Meridional Transport of Zonal Momentum (m2/s2)
(PID.TID 0000.0001) ># WU_VEL   Vertical Transport of Zonal Momentum (m^2/s^2)
(PID.TID 0000.0001) ># WV_VEL   Vertical Transport of Meridional Momentum (m^2/s^2)
(PID.TID 0000.0001) >#
(PID.TID 0000.0001) ># UTHMASS  Zonal Mass-Weight Transp of Pot Temp (K.m/s)
(PID.TID 0000.0001) ># VTHMASS  Meridional Mass-Weight Transp of Pot Temp (K.m/s)
(PID.TID 0000.0001) ># WTHMASS  Vertical Mass-Weight Transp of Pot Temp (K.m/s)
(PID.TID 0000.0001) ># USLTMASS Zonal Mass-Weight Transp of Salt (g/kg.m/s)
(PID.TID 0000.0001) ># VSLTMASS Meridional Mass-Weight Transp of Salt (g/kg.m/s)
(PID.TID 0000.0001) ># WSLTMASS Vertical Mass-Weight Transp of Salt (g/kg.m/s)
(PID.TID 0000.0001) >#
(PID.TID 0000.0001) ># RHOAnoma Density Anomaly (=Rho-rhoConst; kg/m^3)
(PID.TID 0000.0001) ># DRHODR   Stratification: d.Sigma/dr (kg/m3/r_unit; kg/m^4)
(PID.TID 0000.0001) ># RHOANOSQ Square of Density Anomaly (=(Rho-rhoConst)^2; kg^2/m^6)
(PID.TID 0000.0001) ># URHOMASS Zonal Transport of Density (kg/m^2/s)
(PID.TID 0000.0001) ># VRHOMASS Meridional Transport of Density (kg/m^2/s)
(PID.TID 0000.0001) ># WRHOMASS Vertical Transport of Potential Density (kg/m^2/s)
(PID.TID 0000.0001) >#
(PID.TID 0000.0001) > &diagnostics_list
(PID.TID 0000.0001) >  frequency(1)  = -2635200.,
(PID.TID 0000.0001) >   timePhase(1) = 0.,
(PID.TID 0000.0001) >   fields(1,1)  = 'ETAN    ',
(PID.TID 0000.0001) >   filename(1)  = 'ETAN_snap',
(PID.TID 0000.0001) >  frequency(2) = 2635200.,
(PID.TID 0000.0001) >   fields(1,2) = 'SALTanom',
(PID.TID 0000.0001) >   filename(2) = 'SALTanom',
(PID.TID 0000.0001) >  frequency(3) = 2635200.,
(PID.TID 0000.0001) >   fields(1,3) = 'THETA   ',
(PID.TID 0000.0001) >   filename(3) = 'THETA',
(PID.TID 0000.0001) >  frequency(4) = 2635200.,
(PID.TID 0000.0001) >   fields(1,4) = 'TRAC32  ',
(PID.TID 0000.0001) >   filename(4) = 'DIC',
(PID.TID 0000.0001) >  frequency(5) = 86400.,
(PID.TID 0000.0001) >   fields(1,5) = 'DICTFLX ',
(PID.TID 0000.0001) >   filename(5) = 'DICTFLX',
(PID.TID 0000.0001) >  frequency(6) = 86400.,
(PID.TID 0000.0001) >   fields(1,6) = 'DICOFLX ',
(PID.TID 0000.0001) >   filename(6) = 'DICOFLX',
(PID.TID 0000.0001) >  frequency(7) = 86400.,
(PID.TID 0000.0001) >   fields(1,7) = 'DICCFLX ',
(PID.TID 0000.0001) >   filename(7) = 'DICCFLX',
(PID.TID 0000.0001) >  frequency(8) = 86400.,
(PID.TID 0000.0001) >   fields(1,8) = 'DICPCO2 ',
(PID.TID 0000.0001) >   filename(8) = 'DICPCO2',
(PID.TID 0000.0001) >  frequency(9) = 86400.,
(PID.TID 0000.0001) >   fields(1,9) = 'DICPHAV ',
(PID.TID 0000.0001) >   filename(9) = 'DICPHAV',
(PID.TID 0000.0001) >  frequency(10) = 2635200.,
(PID.TID 0000.0001) >   fields(1,10) = 'TRAC01  ',
(PID.TID 0000.0001) >   filename(10) = 'PO4',
(PID.TID 0000.0001) >  frequency(11) = 2635200.,
(PID.TID 0000.0001) >   fields(1,11) = 'TRAC02  ',
(PID.TID 0000.0001) >   filename(11) = 'NO3',
(PID.TID 0000.0001) >  frequency(12) = 2635200.,
(PID.TID 0000.0001) >   fields(1,12) = 'TRAC03  ',
(PID.TID 0000.0001) >   filename(12) = 'FeT',
(PID.TID 0000.0001) >  frequency(13) = 2635200.,
(PID.TID 0000.0001) >   fields(1,13) = 'TRAC04  ',
(PID.TID 0000.0001) >   filename(13) = 'SiO2',
(PID.TID 0000.0001) >  frequency(14) = 2635200.,
(PID.TID 0000.0001) >   fields(1,14) = 'TRAC05  ',
(PID.TID 0000.0001) >   filename(14) = 'DOP',
(PID.TID 0000.0001) >  frequency(15) = 2635200.,
(PID.TID 0000.0001) >   fields(1,15) = 'TRAC06  ',
(PID.TID 0000.0001) >   filename(15) = 'DON',
(PID.TID 0000.0001) >  frequency(16) = 2635200.,
(PID.TID 0000.0001) >   fields(1,16) = 'TRAC07  ',
(PID.TID 0000.0001) >   filename(16) = 'DOFe',
(PID.TID 0000.0001) >  frequency(17) = 2635200.,
(PID.TID 0000.0001) >   fields(1,17) = 'TRAC08  ',
(PID.TID 0000.0001) >   filename(17) = 'ZOO1P',
(PID.TID 0000.0001) >  frequency(18) = 2635200.,
(PID.TID 0000.0001) >   fields(1,18) = 'TRAC09  ',
(PID.TID 0000.0001) >   filename(18) = 'ZOO1N',
(PID.TID 0000.0001) >  frequency(19) = 2635200.,
(PID.TID 0000.0001) >   fields(1,19) = 'TRAC10  ',
(PID.TID 0000.0001) >   filename(19) = 'ZOO1Fe',
(PID.TID 0000.0001) >  frequency(20) = 2635200.,
(PID.TID 0000.0001) >   fields(1,20) = 'TRAC11  ',
(PID.TID 0000.0001) >   filename(20) = 'ZOO1Si',
(PID.TID 0000.0001) >  frequency(21) = 2635200.,
(PID.TID 0000.0001) >   fields(1,21) = 'TRAC12  ',
(PID.TID 0000.0001) >   filename(21) = 'ZOO2P',
(PID.TID 0000.0001) >  frequency(22) = 2635200.,
(PID.TID 0000.0001) >   fields(1,22) = 'TRAC13  ',
(PID.TID 0000.0001) >   filename(22) = 'ZOO2N',
(PID.TID 0000.0001) >  frequency(23) = 2635200.,
(PID.TID 0000.0001) >   fields(1,23) = 'TRAC14  ',
(PID.TID 0000.0001) >   filename(23) = 'ZOO2Fe',
(PID.TID 0000.0001) >  frequency(24) = 2635200.,
(PID.TID 0000.0001) >   fields(1,24) = 'TRAC15  ',
(PID.TID 0000.0001) >   filename(24) = 'ZOO2Si',
(PID.TID 0000.0001) >  frequency(25) = 2635200.,
(PID.TID 0000.0001) >   fields(1,25) = 'TRAC16  ',
(PID.TID 0000.0001) >   filename(25) = 'POP',
(PID.TID 0000.0001) >  frequency(26) = 2635200.,
(PID.TID 0000.0001) >   fields(1,26) = 'TRAC17  ',
(PID.TID 0000.0001) >   filename(26) = 'PON',
(PID.TID 0000.0001) >  frequency(27) = 2635200.,
(PID.TID 0000.0001) >   fields(1,27) = 'TRAC18  ',
(PID.TID 0000.0001) >   filename(27) = 'POFe',
(PID.TID 0000.0001) >  frequency(28) = 2635200.,
(PID.TID 0000.0001) >   fields(1,28) = 'TRAC19  ',
(PID.TID 0000.0001) >   filename(28) = 'POSi',
(PID.TID 0000.0001) >  frequency(29) = 2635200.,
(PID.TID 0000.0001) >   fields(1,29) = 'TRAC20  ',
(PID.TID 0000.0001) >   filename(29) = 'NH4',
(PID.TID 0000.0001) >  frequency(30) = 2635200.,
(PID.TID 0000.0001) >   fields(1,30) = 'TRAC21  ',
(PID.TID 0000.0001) >   filename(30) = 'NO2',
(PID.TID 0000.0001) >  frequency(31) = 2635200.,
(PID.TID 0000.0001) >   fields(1,31) = 'TRAC22  ',
(PID.TID 0000.0001) >   filename(31) = 'Phy01',
(PID.TID 0000.0001) >  frequency(32) = 2635200.,
(PID.TID 0000.0001) >   fields(1,32) = 'TRAC23  ',
(PID.TID 0000.0001) >   filename(32) = 'Phy02',
(PID.TID 0000.0001) >  frequency(33) = 2635200.,
(PID.TID 0000.0001) >   fields(1,33) = 'TRAC24  ',
(PID.TID 0000.0001) >   filename(33) = 'Phy03',
(PID.TID 0000.0001) >  frequency(34) = 2635200.,
(PID.TID 0000.0001) >   fields(1,34) = 'TRAC25  ',
(PID.TID 0000.0001) >   filename(34) = 'Phy04',
(PID.TID 0000.0001) >  frequency(35) = 2635200.,
(PID.TID 0000.0001) >   fields(1,35) = 'TRAC26  ',
(PID.TID 0000.0001) >   filename(35) = 'Phy05',
(PID.TID 0000.0001) >  frequency(36) = 2635200.,
(PID.TID 0000.0001) >   fields(1,36) = 'TRAC33  ',
(PID.TID 0000.0001) >   filename(36) = 'DOC',
(PID.TID 0000.0001) >  frequency(37) = 2635200.,
(PID.TID 0000.0001) >   fields(1,37) = 'TRAC34  ',
(PID.TID 0000.0001) >   filename(37) = 'POC',
(PID.TID 0000.0001) >  frequency(38) = 2635200.,
(PID.TID 0000.0001) >   fields(1,38) = 'TRAC35  ',
(PID.TID 0000.0001) >   filename(38) = 'PIC',
(PID.TID 0000.0001) >  frequency(39) = 2635200.,
(PID.TID 0000.0001) >   fields(1,39) = 'TRAC36  ',
(PID.TID 0000.0001) >   filename(39) = 'ALK',
(PID.TID 0000.0001) >  frequency(40) = 2635200.,
(PID.TID 0000.0001) >   fields(1,40) = 'TRAC37  ',
(PID.TID 0000.0001) >   filename(40) = 'O2',
(PID.TID 0000.0001) >  frequency(41) = 2635200.,
(PID.TID 0000.0001) >   fields(1,41) = 'TRAC38  ',
(PID.TID 0000.0001) >   filename(41) = 'ZOOC1',
(PID.TID 0000.0001) >  frequency(42) = 2635200.,
(PID.TID 0000.0001) >   fields(1,42) = 'TRAC39  ',
(PID.TID 0000.0001) >   filename(42) = 'ZOOC2',
(PID.TID 0000.0001) >  frequency(43) = 2635200.,
(PID.TID 0000.0001) >   fields(1,43) = 'TRAC27  ',
(PID.TID 0000.0001) >   filename(43) = 'CHL1',
(PID.TID 0000.0001) >  frequency(44) = 2635200.,
(PID.TID 0000.0001) >   fields(1,44) = 'TRAC28  ',
(PID.TID 0000.0001) >   filename(44) = 'CHL2',
(PID.TID 0000.0001) >  frequency(45) = 2635200.,
(PID.TID 0000.0001) >   fields(1,45) = 'TRAC29  ',
(PID.TID 0000.0001) >   filename(45) = 'CHL3',
(PID.TID 0000.0001) >  frequency(46) = 2635200.,
(PID.TID 0000.0001) >   fields(1,46) = 'TRAC30  ',
(PID.TID 0000.0001) >   filename(46) = 'CHL4',
(PID.TID 0000.0001) >  frequency(47) = 2635200.,
(PID.TID 0000.0001) >   fields(1,47) = 'TRAC31  ',
(PID.TID 0000.0001) >   filename(47) = 'CHL5',
(PID.TID 0000.0001) >  frequency(48) = 86400.,
(PID.TID 0000.0001) >   fields(1,48) = 'EXFwspee ',
(PID.TID 0000.0001) >   filename(48) = 'EXFwspee',
(PID.TID 0000.0001) >  frequency(49)  = 2635200.,
(PID.TID 0000.0001) >   fields(1,49)  = 'PAR    ',
(PID.TID 0000.0001) >   filename(49)  = 'PAR',
(PID.TID 0000.0001) >  frequency(50)  = 2635200.,
(PID.TID 0000.0001) >   fields(1,50)  = 'PP',
(PID.TID 0000.0001) >   filename(50)  = 'PP',
(PID.TID 0000.0001) >  frequency(51) = 2635200.,
(PID.TID 0000.0001) >   fields(1,51) = 'SIarea ',
(PID.TID 0000.0001) >   filename(51) = 'SIarea_month',
(PID.TID 0000.0001) >  frequency(52) = 2635200.,
(PID.TID 0000.0001) >   fields(1,52) = 'SIheff ',
(PID.TID 0000.0001) >   filename(52) = 'SIheff_month',
(PID.TID 0000.0001) >  frequency(53) = 2635200.,
(PID.TID 0000.0001) >   fields(1,53) = 'EXFapco2 ',
(PID.TID 0000.0001) >   filename(53) = 'EXFapco2_month',
(PID.TID 0000.0001) >  frequency(54) = -2535200.,
(PID.TID 0000.0001) >   fields(1,54) = 'EXFapco2 ',
(PID.TID 0000.0001) >   timePhase(54) = 0.,
(PID.TID 0000.0001) >   filename(54) = 'EXFapco2_snap',
(PID.TID 0000.0001) >
(PID.TID 0000.0001) >  frequency(55) = 10800.,
(PID.TID 0000.0001) >   fields(1,55) = 'DICCFLX ',
(PID.TID 0000.0001) >   filename(55) = 'DICCFLX_3hrly',
(PID.TID 0000.0001) >  frequency(56) = 2635200.,
(PID.TID 0000.0001) >   fields(1,56) = 'DICFGCO2',
(PID.TID 0000.0001) >   filename(56) = 'DICFGCO2',
(PID.TID 0000.0001) >  frequency(57) = 2635200.,
(PID.TID 0000.0001) >   fields(1,57) = 'UE_VEL_C',
(PID.TID 0000.0001) >   filename(57) = 'UE_VEL_C',
(PID.TID 0000.0001) >  frequency(58) = 2635200.,
(PID.TID 0000.0001) >   fields(1,58) = 'VN_VEL_C',
(PID.TID 0000.0001) >   filename(58) = 'VN_VEL_C',
(PID.TID 0000.0001) >  frequency(59) = 2635200.,
(PID.TID 0000.0001) >   fields(1,59) = 'WVEL     ',
(PID.TID 0000.0001) >   filename(59) = 'WVEL',
(PID.TID 0000.0001) >  frequency(60) = 2635200.,
(PID.TID 0000.0001) >   fields(1,60) = 'DICCFLX  ',
(PID.TID 0000.0001) >   filename(60) = 'DICCFLX_month',
(PID.TID 0000.0001) >  frequency(61) = 2635200.,
(PID.TID 0000.0001) >   fields(1,61) = 'DICPCO2  ',
(PID.TID 0000.0001) >   filename(61) = 'DICPCO2_month',
(PID.TID 0000.0001) >  frequency(62) = 2635200.,
(PID.TID 0000.0001) >   fields(1,62) = 'DICOFLX ',
(PID.TID 0000.0001) >   filename(62) = 'DICOFLX_month',
(PID.TID 0000.0001) > frequency(63) = 2635200.,
(PID.TID 0000.0001) >   fields(1,63) = 'oceQsw  ',
(PID.TID 0000.0001) >   filename(63) = 'oceQsw_month',
(PID.TID 0000.0001) > frequency(64) = 2635200.,
(PID.TID 0000.0001) >   fields(1,64) = 'oceQnet ',
(PID.TID 0000.0001) >   filename(64) = 'oceQnet_month',
(PID.TID 0000.0001) > frequency(65) = 2635200.,
(PID.TID 0000.0001) >   fields(1,65) = 'EXFwspee ',
(PID.TID 0000.0001) >   filename(65) = 'EXFwspee_month',
(PID.TID 0000.0001) >
(PID.TID 0000.0001) > &
(PID.TID 0000.0001) >
(PID.TID 0000.0001) ># Parameter for Diagnostics of per level statistics:
(PID.TID 0000.0001) >#-----------------
(PID.TID 0000.0001) ># for each output-stream:
(PID.TID 0000.0001) >#  stat_fname(n) : prefix of the output file name (only 8.c long) for
(PID.TID 0000.0001) >#outp.stream n
(PID.TID 0000.0001) >#  stat_freq(n):< 0 : write snap-shot output every |stat_freq| seconds
(PID.TID 0000.0001) >#               > 0 : write time-average output every stat_freq seconds
(PID.TID 0000.0001) >#  stat_phase(n)    : write at time = stat_phase + multiple of |stat_freq|
(PID.TID 0000.0001) >#  stat_region(:,n) : list of "regions" (default: 1 region only=global)
(PID.TID 0000.0001) >#  stat_fields(:,n) : list of diagnostics fields (8.c) (see
(PID.TID 0000.0001) >#"available_diagnostics.log"
(PID.TID 0000.0001) >#                 file for the list of all available diag. in this particular
(PID.TID 0000.0001) >#config)
(PID.TID 0000.0001) >#-----------------
(PID.TID 0000.0001) > &DIAG_STATIS_PARMS
(PID.TID 0000.0001) >#- an example just to check the agreement with MONITOR output:
(PID.TID 0000.0001) >#stat_fields(1,1)= 'ETAN    ','UVEL    ','VVEL    ','WVEL    ', 'THETA   ',
(PID.TID 0000.0001) >#   stat_fname(1)= 'dynStDiag',
(PID.TID 0000.0001) >#    stat_freq(1)= -864000.,
(PID.TID 0000.0001) >#   stat_phase(1)= 0.,
(PID.TID 0000.0001) > &
(PID.TID 0000.0001) 
(PID.TID 0000.0001) S/R DIAGNOSTICS_READPARMS, read namelist "diagnostics_list": start
(PID.TID 0000.0001) S/R DIAGNOSTICS_READPARMS, read namelist "diagnostics_list": OK
(PID.TID 0000.0001) S/R DIAGNOSTICS_READPARMS, read namelist "DIAG_STATIS_PARMS": start
(PID.TID 0000.0001) S/R DIAGNOSTICS_READPARMS, read namelist "DIAG_STATIS_PARMS": OK
(PID.TID 0000.0001)  DIAGNOSTICS_READPARMS: global parameter summary:
(PID.TID 0000.0001)  dumpAtLast = /* always write time-ave diags at the end */
(PID.TID 0000.0001)                   F
(PID.TID 0000.0001)     ;
(PID.TID 0000.0001)  diag_mnc =   /* write NetCDF output files */
(PID.TID 0000.0001)                   F
(PID.TID 0000.0001)     ;
(PID.TID 0000.0001)  useMissingValue = /* put MissingValue where mask = 0 */
(PID.TID 0000.0001)                   F
(PID.TID 0000.0001)     ;
(PID.TID 0000.0001)  diagCG_maxIters = /* max number of iters in diag_cg2d */
(PID.TID 0000.0001)                     300
(PID.TID 0000.0001)     ;
(PID.TID 0000.0001)  diagCG_resTarget = /* residual target for diag_cg2d */
(PID.TID 0000.0001)                 1.000000000000000E-07
(PID.TID 0000.0001)     ;
(PID.TID 0000.0001)  diagCG_pcOffDFac = /* preconditioner off-diagonal factor */
(PID.TID 0000.0001)                 9.611687812379854E-01
(PID.TID 0000.0001)     ;
(PID.TID 0000.0001) -----------------------------------------------------
(PID.TID 0000.0001)  DIAGNOSTICS_READPARMS: active diagnostics summary:
(PID.TID 0000.0001) -----------------------------------------------------
(PID.TID 0000.0001) Creating Output Stream: ETAN_snap
(PID.TID 0000.0001) Output Frequency:   -2635200.000000 ; Phase:           0.000000
(PID.TID 0000.0001)  Averaging Freq.:          0.000000 , Phase:           0.000000 , Cycle:   1
(PID.TID 0000.0001)  missing value: -9.990000000000E+02
(PID.TID 0000.0001)  Levels:    will be set later
(PID.TID 0000.0001)  Fields:    ETAN
(PID.TID 0000.0001) Creating Output Stream: SALTanom
(PID.TID 0000.0001) Output Frequency:    2635200.000000 ; Phase:           0.000000
(PID.TID 0000.0001)  Averaging Freq.:    2635200.000000 , Phase:           0.000000 , Cycle:   1
(PID.TID 0000.0001)  missing value: -9.990000000000E+02
(PID.TID 0000.0001)  Levels:    will be set later
(PID.TID 0000.0001)  Fields:    SALTanom
(PID.TID 0000.0001) Creating Output Stream: THETA
(PID.TID 0000.0001) Output Frequency:    2635200.000000 ; Phase:           0.000000
(PID.TID 0000.0001)  Averaging Freq.:    2635200.000000 , Phase:           0.000000 , Cycle:   1
(PID.TID 0000.0001)  missing value: -9.990000000000E+02
(PID.TID 0000.0001)  Levels:    will be set later
(PID.TID 0000.0001)  Fields:    THETA
(PID.TID 0000.0001) Creating Output Stream: DIC
(PID.TID 0000.0001) Output Frequency:    2635200.000000 ; Phase:           0.000000
(PID.TID 0000.0001)  Averaging Freq.:    2635200.000000 , Phase:           0.000000 , Cycle:   1
(PID.TID 0000.0001)  missing value: -9.990000000000E+02
(PID.TID 0000.0001)  Levels:    will be set later
(PID.TID 0000.0001)  Fields:    TRAC32
(PID.TID 0000.0001) Creating Output Stream: DICTFLX
(PID.TID 0000.0001) Output Frequency:      86400.000000 ; Phase:           0.000000
(PID.TID 0000.0001)  Averaging Freq.:      86400.000000 , Phase:           0.000000 , Cycle:   1
(PID.TID 0000.0001)  missing value: -9.990000000000E+02
(PID.TID 0000.0001)  Levels:    will be set later
(PID.TID 0000.0001)  Fields:    DICTFLX
(PID.TID 0000.0001) Creating Output Stream: DICOFLX
(PID.TID 0000.0001) Output Frequency:      86400.000000 ; Phase:           0.000000
(PID.TID 0000.0001)  Averaging Freq.:      86400.000000 , Phase:           0.000000 , Cycle:   1
(PID.TID 0000.0001)  missing value: -9.990000000000E+02
(PID.TID 0000.0001)  Levels:    will be set later
(PID.TID 0000.0001)  Fields:    DICOFLX
(PID.TID 0000.0001) Creating Output Stream: DICCFLX
(PID.TID 0000.0001) Output Frequency:      86400.000000 ; Phase:           0.000000
(PID.TID 0000.0001)  Averaging Freq.:      86400.000000 , Phase:           0.000000 , Cycle:   1
(PID.TID 0000.0001)  missing value: -9.990000000000E+02
(PID.TID 0000.0001)  Levels:    will be set later
(PID.TID 0000.0001)  Fields:    DICCFLX
(PID.TID 0000.0001) Creating Output Stream: DICPCO2
(PID.TID 0000.0001) Output Frequency:      86400.000000 ; Phase:           0.000000
(PID.TID 0000.0001)  Averaging Freq.:      86400.000000 , Phase:           0.000000 , Cycle:   1
(PID.TID 0000.0001)  missing value: -9.990000000000E+02
(PID.TID 0000.0001)  Levels:    will be set later
(PID.TID 0000.0001)  Fields:    DICPCO2
(PID.TID 0000.0001) Creating Output Stream: DICPHAV
(PID.TID 0000.0001) Output Frequency:      86400.000000 ; Phase:           0.000000
(PID.TID 0000.0001)  Averaging Freq.:      86400.000000 , Phase:           0.000000 , Cycle:   1
(PID.TID 0000.0001)  missing value: -9.990000000000E+02
(PID.TID 0000.0001)  Levels:    will be set later
(PID.TID 0000.0001)  Fields:    DICPHAV
(PID.TID 0000.0001) Creating Output Stream: PO4
(PID.TID 0000.0001) Output Frequency:    2635200.000000 ; Phase:           0.000000
(PID.TID 0000.0001)  Averaging Freq.:    2635200.000000 , Phase:           0.000000 , Cycle:   1
(PID.TID 0000.0001)  missing value: -9.990000000000E+02
(PID.TID 0000.0001)  Levels:    will be set later
(PID.TID 0000.0001)  Fields:    TRAC01
(PID.TID 0000.0001) Creating Output Stream: NO3
(PID.TID 0000.0001) Output Frequency:    2635200.000000 ; Phase:           0.000000
(PID.TID 0000.0001)  Averaging Freq.:    2635200.000000 , Phase:           0.000000 , Cycle:   1
(PID.TID 0000.0001)  missing value: -9.990000000000E+02
(PID.TID 0000.0001)  Levels:    will be set later
(PID.TID 0000.0001)  Fields:    TRAC02
(PID.TID 0000.0001) Creating Output Stream: FeT
(PID.TID 0000.0001) Output Frequency:    2635200.000000 ; Phase:           0.000000
(PID.TID 0000.0001)  Averaging Freq.:    2635200.000000 , Phase:           0.000000 , Cycle:   1
(PID.TID 0000.0001)  missing value: -9.990000000000E+02
(PID.TID 0000.0001)  Levels:    will be set later
(PID.TID 0000.0001)  Fields:    TRAC03
(PID.TID 0000.0001) Creating Output Stream: SiO2
(PID.TID 0000.0001) Output Frequency:    2635200.000000 ; Phase:           0.000000
(PID.TID 0000.0001)  Averaging Freq.:    2635200.000000 , Phase:           0.000000 , Cycle:   1
(PID.TID 0000.0001)  missing value: -9.990000000000E+02
(PID.TID 0000.0001)  Levels:    will be set later
(PID.TID 0000.0001)  Fields:    TRAC04
(PID.TID 0000.0001) Creating Output Stream: DOP
(PID.TID 0000.0001) Output Frequency:    2635200.000000 ; Phase:           0.000000
(PID.TID 0000.0001)  Averaging Freq.:    2635200.000000 , Phase:           0.000000 , Cycle:   1
(PID.TID 0000.0001)  missing value: -9.990000000000E+02
(PID.TID 0000.0001)  Levels:    will be set later
(PID.TID 0000.0001)  Fields:    TRAC05
(PID.TID 0000.0001) Creating Output Stream: DON
(PID.TID 0000.0001) Output Frequency:    2635200.000000 ; Phase:           0.000000
(PID.TID 0000.0001)  Averaging Freq.:    2635200.000000 , Phase:           0.000000 , Cycle:   1
(PID.TID 0000.0001)  missing value: -9.990000000000E+02
(PID.TID 0000.0001)  Levels:    will be set later
(PID.TID 0000.0001)  Fields:    TRAC06
(PID.TID 0000.0001) Creating Output Stream: DOFe
(PID.TID 0000.0001) Output Frequency:    2635200.000000 ; Phase:           0.000000
(PID.TID 0000.0001)  Averaging Freq.:    2635200.000000 , Phase:           0.000000 , Cycle:   1
(PID.TID 0000.0001)  missing value: -9.990000000000E+02
(PID.TID 0000.0001)  Levels:    will be set later
(PID.TID 0000.0001)  Fields:    TRAC07
(PID.TID 0000.0001) Creating Output Stream: ZOO1P
(PID.TID 0000.0001) Output Frequency:    2635200.000000 ; Phase:           0.000000
(PID.TID 0000.0001)  Averaging Freq.:    2635200.000000 , Phase:           0.000000 , Cycle:   1
(PID.TID 0000.0001)  missing value: -9.990000000000E+02
(PID.TID 0000.0001)  Levels:    will be set later
(PID.TID 0000.0001)  Fields:    TRAC08
(PID.TID 0000.0001) Creating Output Stream: ZOO1N
(PID.TID 0000.0001) Output Frequency:    2635200.000000 ; Phase:           0.000000
(PID.TID 0000.0001)  Averaging Freq.:    2635200.000000 , Phase:           0.000000 , Cycle:   1
(PID.TID 0000.0001)  missing value: -9.990000000000E+02
(PID.TID 0000.0001)  Levels:    will be set later
(PID.TID 0000.0001)  Fields:    TRAC09
(PID.TID 0000.0001) Creating Output Stream: ZOO1Fe
(PID.TID 0000.0001) Output Frequency:    2635200.000000 ; Phase:           0.000000
(PID.TID 0000.0001)  Averaging Freq.:    2635200.000000 , Phase:           0.000000 , Cycle:   1
(PID.TID 0000.0001)  missing value: -9.990000000000E+02
(PID.TID 0000.0001)  Levels:    will be set later
(PID.TID 0000.0001)  Fields:    TRAC10
(PID.TID 0000.0001) Creating Output Stream: ZOO1Si
(PID.TID 0000.0001) Output Frequency:    2635200.000000 ; Phase:           0.000000
(PID.TID 0000.0001)  Averaging Freq.:    2635200.000000 , Phase:           0.000000 , Cycle:   1
(PID.TID 0000.0001)  missing value: -9.990000000000E+02
(PID.TID 0000.0001)  Levels:    will be set later
(PID.TID 0000.0001)  Fields:    TRAC11
(PID.TID 0000.0001) Creating Output Stream: ZOO2P
(PID.TID 0000.0001) Output Frequency:    2635200.000000 ; Phase:           0.000000
(PID.TID 0000.0001)  Averaging Freq.:    2635200.000000 , Phase:           0.000000 , Cycle:   1
(PID.TID 0000.0001)  missing value: -9.990000000000E+02
(PID.TID 0000.0001)  Levels:    will be set later
(PID.TID 0000.0001)  Fields:    TRAC12
(PID.TID 0000.0001) Creating Output Stream: ZOO2N
(PID.TID 0000.0001) Output Frequency:    2635200.000000 ; Phase:           0.000000
(PID.TID 0000.0001)  Averaging Freq.:    2635200.000000 , Phase:           0.000000 , Cycle:   1
(PID.TID 0000.0001)  missing value: -9.990000000000E+02
(PID.TID 0000.0001)  Levels:    will be set later
(PID.TID 0000.0001)  Fields:    TRAC13
(PID.TID 0000.0001) Creating Output Stream: ZOO2Fe
(PID.TID 0000.0001) Output Frequency:    2635200.000000 ; Phase:           0.000000
(PID.TID 0000.0001)  Averaging Freq.:    2635200.000000 , Phase:           0.000000 , Cycle:   1
(PID.TID 0000.0001)  missing value: -9.990000000000E+02
(PID.TID 0000.0001)  Levels:    will be set later
(PID.TID 0000.0001)  Fields:    TRAC14
(PID.TID 0000.0001) Creating Output Stream: ZOO2Si
(PID.TID 0000.0001) Output Frequency:    2635200.000000 ; Phase:           0.000000
(PID.TID 0000.0001)  Averaging Freq.:    2635200.000000 , Phase:           0.000000 , Cycle:   1
(PID.TID 0000.0001)  missing value: -9.990000000000E+02
(PID.TID 0000.0001)  Levels:    will be set later
(PID.TID 0000.0001)  Fields:    TRAC15
(PID.TID 0000.0001) Creating Output Stream: POP
(PID.TID 0000.0001) Output Frequency:    2635200.000000 ; Phase:           0.000000
(PID.TID 0000.0001)  Averaging Freq.:    2635200.000000 , Phase:           0.000000 , Cycle:   1
(PID.TID 0000.0001)  missing value: -9.990000000000E+02
(PID.TID 0000.0001)  Levels:    will be set later
(PID.TID 0000.0001)  Fields:    TRAC16
(PID.TID 0000.0001) Creating Output Stream: PON
(PID.TID 0000.0001) Output Frequency:    2635200.000000 ; Phase:           0.000000
(PID.TID 0000.0001)  Averaging Freq.:    2635200.000000 , Phase:           0.000000 , Cycle:   1
(PID.TID 0000.0001)  missing value: -9.990000000000E+02
(PID.TID 0000.0001)  Levels:    will be set later
(PID.TID 0000.0001)  Fields:    TRAC17
(PID.TID 0000.0001) Creating Output Stream: POFe
(PID.TID 0000.0001) Output Frequency:    2635200.000000 ; Phase:           0.000000
(PID.TID 0000.0001)  Averaging Freq.:    2635200.000000 , Phase:           0.000000 , Cycle:   1
(PID.TID 0000.0001)  missing value: -9.990000000000E+02
(PID.TID 0000.0001)  Levels:    will be set later
(PID.TID 0000.0001)  Fields:    TRAC18
(PID.TID 0000.0001) Creating Output Stream: POSi
(PID.TID 0000.0001) Output Frequency:    2635200.000000 ; Phase:           0.000000
(PID.TID 0000.0001)  Averaging Freq.:    2635200.000000 , Phase:           0.000000 , Cycle:   1
(PID.TID 0000.0001)  missing value: -9.990000000000E+02
(PID.TID 0000.0001)  Levels:    will be set later
(PID.TID 0000.0001)  Fields:    TRAC19
(PID.TID 0000.0001) Creating Output Stream: NH4
(PID.TID 0000.0001) Output Frequency:    2635200.000000 ; Phase:           0.000000
(PID.TID 0000.0001)  Averaging Freq.:    2635200.000000 , Phase:           0.000000 , Cycle:   1
(PID.TID 0000.0001)  missing value: -9.990000000000E+02
(PID.TID 0000.0001)  Levels:    will be set later
(PID.TID 0000.0001)  Fields:    TRAC20
(PID.TID 0000.0001) Creating Output Stream: NO2
(PID.TID 0000.0001) Output Frequency:    2635200.000000 ; Phase:           0.000000
(PID.TID 0000.0001)  Averaging Freq.:    2635200.000000 , Phase:           0.000000 , Cycle:   1
(PID.TID 0000.0001)  missing value: -9.990000000000E+02
(PID.TID 0000.0001)  Levels:    will be set later
(PID.TID 0000.0001)  Fields:    TRAC21
(PID.TID 0000.0001) Creating Output Stream: Phy01
(PID.TID 0000.0001) Output Frequency:    2635200.000000 ; Phase:           0.000000
(PID.TID 0000.0001)  Averaging Freq.:    2635200.000000 , Phase:           0.000000 , Cycle:   1
(PID.TID 0000.0001)  missing value: -9.990000000000E+02
(PID.TID 0000.0001)  Levels:    will be set later
(PID.TID 0000.0001)  Fields:    TRAC22
(PID.TID 0000.0001) Creating Output Stream: Phy02
(PID.TID 0000.0001) Output Frequency:    2635200.000000 ; Phase:           0.000000
(PID.TID 0000.0001)  Averaging Freq.:    2635200.000000 , Phase:           0.000000 , Cycle:   1
(PID.TID 0000.0001)  missing value: -9.990000000000E+02
(PID.TID 0000.0001)  Levels:    will be set later
(PID.TID 0000.0001)  Fields:    TRAC23
(PID.TID 0000.0001) Creating Output Stream: Phy03
(PID.TID 0000.0001) Output Frequency:    2635200.000000 ; Phase:           0.000000
(PID.TID 0000.0001)  Averaging Freq.:    2635200.000000 , Phase:           0.000000 , Cycle:   1
(PID.TID 0000.0001)  missing value: -9.990000000000E+02
(PID.TID 0000.0001)  Levels:    will be set later
(PID.TID 0000.0001)  Fields:    TRAC24
(PID.TID 0000.0001) Creating Output Stream: Phy04
(PID.TID 0000.0001) Output Frequency:    2635200.000000 ; Phase:           0.000000
(PID.TID 0000.0001)  Averaging Freq.:    2635200.000000 , Phase:           0.000000 , Cycle:   1
(PID.TID 0000.0001)  missing value: -9.990000000000E+02
(PID.TID 0000.0001)  Levels:    will be set later
(PID.TID 0000.0001)  Fields:    TRAC25
(PID.TID 0000.0001) Creating Output Stream: Phy05
(PID.TID 0000.0001) Output Frequency:    2635200.000000 ; Phase:           0.000000
(PID.TID 0000.0001)  Averaging Freq.:    2635200.000000 , Phase:           0.000000 , Cycle:   1
(PID.TID 0000.0001)  missing value: -9.990000000000E+02
(PID.TID 0000.0001)  Levels:    will be set later
(PID.TID 0000.0001)  Fields:    TRAC26
(PID.TID 0000.0001) Creating Output Stream: DOC
(PID.TID 0000.0001) Output Frequency:    2635200.000000 ; Phase:           0.000000
(PID.TID 0000.0001)  Averaging Freq.:    2635200.000000 , Phase:           0.000000 , Cycle:   1
(PID.TID 0000.0001)  missing value: -9.990000000000E+02
(PID.TID 0000.0001)  Levels:    will be set later
(PID.TID 0000.0001)  Fields:    TRAC33
(PID.TID 0000.0001) Creating Output Stream: POC
(PID.TID 0000.0001) Output Frequency:    2635200.000000 ; Phase:           0.000000
(PID.TID 0000.0001)  Averaging Freq.:    2635200.000000 , Phase:           0.000000 , Cycle:   1
(PID.TID 0000.0001)  missing value: -9.990000000000E+02
(PID.TID 0000.0001)  Levels:    will be set later
(PID.TID 0000.0001)  Fields:    TRAC34
(PID.TID 0000.0001) Creating Output Stream: PIC
(PID.TID 0000.0001) Output Frequency:    2635200.000000 ; Phase:           0.000000
(PID.TID 0000.0001)  Averaging Freq.:    2635200.000000 , Phase:           0.000000 , Cycle:   1
(PID.TID 0000.0001)  missing value: -9.990000000000E+02
(PID.TID 0000.0001)  Levels:    will be set later
(PID.TID 0000.0001)  Fields:    TRAC35
(PID.TID 0000.0001) Creating Output Stream: ALK
(PID.TID 0000.0001) Output Frequency:    2635200.000000 ; Phase:           0.000000
(PID.TID 0000.0001)  Averaging Freq.:    2635200.000000 , Phase:           0.000000 , Cycle:   1
(PID.TID 0000.0001)  missing value: -9.990000000000E+02
(PID.TID 0000.0001)  Levels:    will be set later
(PID.TID 0000.0001)  Fields:    TRAC36
(PID.TID 0000.0001) Creating Output Stream: O2
(PID.TID 0000.0001) Output Frequency:    2635200.000000 ; Phase:           0.000000
(PID.TID 0000.0001)  Averaging Freq.:    2635200.000000 , Phase:           0.000000 , Cycle:   1
(PID.TID 0000.0001)  missing value: -9.990000000000E+02
(PID.TID 0000.0001)  Levels:    will be set later
(PID.TID 0000.0001)  Fields:    TRAC37
(PID.TID 0000.0001) Creating Output Stream: ZOOC1
(PID.TID 0000.0001) Output Frequency:    2635200.000000 ; Phase:           0.000000
(PID.TID 0000.0001)  Averaging Freq.:    2635200.000000 , Phase:           0.000000 , Cycle:   1
(PID.TID 0000.0001)  missing value: -9.990000000000E+02
(PID.TID 0000.0001)  Levels:    will be set later
(PID.TID 0000.0001)  Fields:    TRAC38
(PID.TID 0000.0001) Creating Output Stream: ZOOC2
(PID.TID 0000.0001) Output Frequency:    2635200.000000 ; Phase:           0.000000
(PID.TID 0000.0001)  Averaging Freq.:    2635200.000000 , Phase:           0.000000 , Cycle:   1
(PID.TID 0000.0001)  missing value: -9.990000000000E+02
(PID.TID 0000.0001)  Levels:    will be set later
(PID.TID 0000.0001)  Fields:    TRAC39
(PID.TID 0000.0001) Creating Output Stream: CHL1
(PID.TID 0000.0001) Output Frequency:    2635200.000000 ; Phase:           0.000000
(PID.TID 0000.0001)  Averaging Freq.:    2635200.000000 , Phase:           0.000000 , Cycle:   1
(PID.TID 0000.0001)  missing value: -9.990000000000E+02
(PID.TID 0000.0001)  Levels:    will be set later
(PID.TID 0000.0001)  Fields:    TRAC27
(PID.TID 0000.0001) Creating Output Stream: CHL2
(PID.TID 0000.0001) Output Frequency:    2635200.000000 ; Phase:           0.000000
(PID.TID 0000.0001)  Averaging Freq.:    2635200.000000 , Phase:           0.000000 , Cycle:   1
(PID.TID 0000.0001)  missing value: -9.990000000000E+02
(PID.TID 0000.0001)  Levels:    will be set later
(PID.TID 0000.0001)  Fields:    TRAC28
(PID.TID 0000.0001) Creating Output Stream: CHL3
(PID.TID 0000.0001) Output Frequency:    2635200.000000 ; Phase:           0.000000
(PID.TID 0000.0001)  Averaging Freq.:    2635200.000000 , Phase:           0.000000 , Cycle:   1
(PID.TID 0000.0001)  missing value: -9.990000000000E+02
(PID.TID 0000.0001)  Levels:    will be set later
(PID.TID 0000.0001)  Fields:    TRAC29
(PID.TID 0000.0001) Creating Output Stream: CHL4
(PID.TID 0000.0001) Output Frequency:    2635200.000000 ; Phase:           0.000000
(PID.TID 0000.0001)  Averaging Freq.:    2635200.000000 , Phase:           0.000000 , Cycle:   1
(PID.TID 0000.0001)  missing value: -9.990000000000E+02
(PID.TID 0000.0001)  Levels:    will be set later
(PID.TID 0000.0001)  Fields:    TRAC30
(PID.TID 0000.0001) Creating Output Stream: CHL5
(PID.TID 0000.0001) Output Frequency:    2635200.000000 ; Phase:           0.000000
(PID.TID 0000.0001)  Averaging Freq.:    2635200.000000 , Phase:           0.000000 , Cycle:   1
(PID.TID 0000.0001)  missing value: -9.990000000000E+02
(PID.TID 0000.0001)  Levels:    will be set later
(PID.TID 0000.0001)  Fields:    TRAC31
(PID.TID 0000.0001) Creating Output Stream: EXFwspee
(PID.TID 0000.0001) Output Frequency:      86400.000000 ; Phase:           0.000000
(PID.TID 0000.0001)  Averaging Freq.:      86400.000000 , Phase:           0.000000 , Cycle:   1
(PID.TID 0000.0001)  missing value: -9.990000000000E+02
(PID.TID 0000.0001)  Levels:    will be set later
(PID.TID 0000.0001)  Fields:    EXFwspee
(PID.TID 0000.0001) Creating Output Stream: PAR
(PID.TID 0000.0001) Output Frequency:    2635200.000000 ; Phase:           0.000000
(PID.TID 0000.0001)  Averaging Freq.:    2635200.000000 , Phase:           0.000000 , Cycle:   1
(PID.TID 0000.0001)  missing value: -9.990000000000E+02
(PID.TID 0000.0001)  Levels:    will be set later
(PID.TID 0000.0001)  Fields:    PAR
(PID.TID 0000.0001) Creating Output Stream: PP
(PID.TID 0000.0001) Output Frequency:    2635200.000000 ; Phase:           0.000000
(PID.TID 0000.0001)  Averaging Freq.:    2635200.000000 , Phase:           0.000000 , Cycle:   1
(PID.TID 0000.0001)  missing value: -9.990000000000E+02
(PID.TID 0000.0001)  Levels:    will be set later
(PID.TID 0000.0001)  Fields:    PP
(PID.TID 0000.0001) Creating Output Stream: SIarea_month
(PID.TID 0000.0001) Output Frequency:    2635200.000000 ; Phase:           0.000000
(PID.TID 0000.0001)  Averaging Freq.:    2635200.000000 , Phase:           0.000000 , Cycle:   1
(PID.TID 0000.0001)  missing value: -9.990000000000E+02
(PID.TID 0000.0001)  Levels:    will be set later
(PID.TID 0000.0001)  Fields:    SIarea
(PID.TID 0000.0001) Creating Output Stream: SIheff_month
(PID.TID 0000.0001) Output Frequency:    2635200.000000 ; Phase:           0.000000
(PID.TID 0000.0001)  Averaging Freq.:    2635200.000000 , Phase:           0.000000 , Cycle:   1
(PID.TID 0000.0001)  missing value: -9.990000000000E+02
(PID.TID 0000.0001)  Levels:    will be set later
(PID.TID 0000.0001)  Fields:    SIheff
(PID.TID 0000.0001) Creating Output Stream: EXFapco2_month
(PID.TID 0000.0001) Output Frequency:    2635200.000000 ; Phase:           0.000000
(PID.TID 0000.0001)  Averaging Freq.:    2635200.000000 , Phase:           0.000000 , Cycle:   1
(PID.TID 0000.0001)  missing value: -9.990000000000E+02
(PID.TID 0000.0001)  Levels:    will be set later
(PID.TID 0000.0001)  Fields:    EXFapco2
(PID.TID 0000.0001) Creating Output Stream: EXFapco2_snap
(PID.TID 0000.0001) Output Frequency:   -2535200.000000 ; Phase:           0.000000
(PID.TID 0000.0001)  Averaging Freq.:          0.000000 , Phase:           0.000000 , Cycle:   1
(PID.TID 0000.0001)  missing value: -9.990000000000E+02
(PID.TID 0000.0001)  Levels:    will be set later
(PID.TID 0000.0001)  Fields:    EXFapco2
(PID.TID 0000.0001) Creating Output Stream: DICCFLX_3hrly
(PID.TID 0000.0001) Output Frequency:      10800.000000 ; Phase:           0.000000
(PID.TID 0000.0001)  Averaging Freq.:      10800.000000 , Phase:           0.000000 , Cycle:   1
(PID.TID 0000.0001)  missing value: -9.990000000000E+02
(PID.TID 0000.0001)  Levels:    will be set later
(PID.TID 0000.0001)  Fields:    DICCFLX
(PID.TID 0000.0001) Creating Output Stream: DICFGCO2
(PID.TID 0000.0001) Output Frequency:    2635200.000000 ; Phase:           0.000000
(PID.TID 0000.0001)  Averaging Freq.:    2635200.000000 , Phase:           0.000000 , Cycle:   1
(PID.TID 0000.0001)  missing value: -9.990000000000E+02
(PID.TID 0000.0001)  Levels:    will be set later
(PID.TID 0000.0001)  Fields:    DICFGCO2
(PID.TID 0000.0001) Creating Output Stream: UE_VEL_C
(PID.TID 0000.0001) Output Frequency:    2635200.000000 ; Phase:           0.000000
(PID.TID 0000.0001)  Averaging Freq.:    2635200.000000 , Phase:           0.000000 , Cycle:   1
(PID.TID 0000.0001)  missing value: -9.990000000000E+02
(PID.TID 0000.0001)  Levels:    will be set later
(PID.TID 0000.0001)  Fields:    UE_VEL_C
(PID.TID 0000.0001) Creating Output Stream: VN_VEL_C
(PID.TID 0000.0001) Output Frequency:    2635200.000000 ; Phase:           0.000000
(PID.TID 0000.0001)  Averaging Freq.:    2635200.000000 , Phase:           0.000000 , Cycle:   1
(PID.TID 0000.0001)  missing value: -9.990000000000E+02
(PID.TID 0000.0001)  Levels:    will be set later
(PID.TID 0000.0001)  Fields:    VN_VEL_C
(PID.TID 0000.0001) Creating Output Stream: WVEL
(PID.TID 0000.0001) Output Frequency:    2635200.000000 ; Phase:           0.000000
(PID.TID 0000.0001)  Averaging Freq.:    2635200.000000 , Phase:           0.000000 , Cycle:   1
(PID.TID 0000.0001)  missing value: -9.990000000000E+02
(PID.TID 0000.0001)  Levels:    will be set later
(PID.TID 0000.0001)  Fields:    WVEL
(PID.TID 0000.0001) Creating Output Stream: DICCFLX_month
(PID.TID 0000.0001) Output Frequency:    2635200.000000 ; Phase:           0.000000
(PID.TID 0000.0001)  Averaging Freq.:    2635200.000000 , Phase:           0.000000 , Cycle:   1
(PID.TID 0000.0001)  missing value: -9.990000000000E+02
(PID.TID 0000.0001)  Levels:    will be set later
(PID.TID 0000.0001)  Fields:    DICCFLX
(PID.TID 0000.0001) Creating Output Stream: DICPCO2_month
(PID.TID 0000.0001) Output Frequency:    2635200.000000 ; Phase:           0.000000
(PID.TID 0000.0001)  Averaging Freq.:    2635200.000000 , Phase:           0.000000 , Cycle:   1
(PID.TID 0000.0001)  missing value: -9.990000000000E+02
(PID.TID 0000.0001)  Levels:    will be set later
(PID.TID 0000.0001)  Fields:    DICPCO2
(PID.TID 0000.0001) Creating Output Stream: DICOFLX_month
(PID.TID 0000.0001) Output Frequency:    2635200.000000 ; Phase:           0.000000
(PID.TID 0000.0001)  Averaging Freq.:    2635200.000000 , Phase:           0.000000 , Cycle:   1
(PID.TID 0000.0001)  missing value: -9.990000000000E+02
(PID.TID 0000.0001)  Levels:    will be set later
(PID.TID 0000.0001)  Fields:    DICOFLX
(PID.TID 0000.0001) Creating Output Stream: oceQsw_month
(PID.TID 0000.0001) Output Frequency:    2635200.000000 ; Phase:           0.000000
(PID.TID 0000.0001)  Averaging Freq.:    2635200.000000 , Phase:           0.000000 , Cycle:   1
(PID.TID 0000.0001)  missing value: -9.990000000000E+02
(PID.TID 0000.0001)  Levels:    will be set later
(PID.TID 0000.0001)  Fields:    oceQsw
(PID.TID 0000.0001) Creating Output Stream: oceQnet_month
(PID.TID 0000.0001) Output Frequency:    2635200.000000 ; Phase:           0.000000
(PID.TID 0000.0001)  Averaging Freq.:    2635200.000000 , Phase:           0.000000 , Cycle:   1
(PID.TID 0000.0001)  missing value: -9.990000000000E+02
(PID.TID 0000.0001)  Levels:    will be set later
(PID.TID 0000.0001)  Fields:    oceQnet
(PID.TID 0000.0001) Creating Output Stream: EXFwspee_month
(PID.TID 0000.0001) Output Frequency:    2635200.000000 ; Phase:           0.000000
(PID.TID 0000.0001)  Averaging Freq.:    2635200.000000 , Phase:           0.000000 , Cycle:   1
(PID.TID 0000.0001)  missing value: -9.990000000000E+02
(PID.TID 0000.0001)  Levels:    will be set later
(PID.TID 0000.0001)  Fields:    EXFwspee
(PID.TID 0000.0001) -----------------------------------------------------
(PID.TID 0000.0001)  DIAGNOSTICS_READPARMS: statistics diags. summary:
(PID.TID 0000.0001) -----------------------------------------------------
(PID.TID 0000.0001) 
(PID.TID 0000.0001) SET_PARMS: done
(PID.TID 0000.0001) Enter INI_VERTICAL_GRID: setInterFDr=    T ; setCenterDr=    F
(PID.TID 0000.0001) tile:  28 ; Read from file tile001.mitgrid
(PID.TID 0000.0001)   => xC yC dxF dyF rA xG yG dxV dyU rAz dxC dyC rAw rAs dxG dyG
(PID.TID 0000.0001) %MON XC_max                       =   1.7999683019969E+02
(PID.TID 0000.0001) %MON XC_min                       =  -1.7999884307030E+02
(PID.TID 0000.0001) %MON XC_mean                      =  -8.0656007322684E+00
(PID.TID 0000.0001) %MON XC_sd                        =   1.0587862730141E+02
(PID.TID 0000.0001) %MON XG_max                       =   1.8000000000000E+02
(PID.TID 0000.0001) %MON XG_min                       =  -1.7999971225215E+02
(PID.TID 0000.0001) %MON XG_mean                      =  -7.8403093425671E+00
(PID.TID 0000.0001) %MON XG_sd                        =   1.0589046565885E+02
(PID.TID 0000.0001) %MON DXC_max                      =   3.7059022349102E+04
(PID.TID 0000.0001) %MON DXC_min                      =   3.0520105416159E+03
(PID.TID 0000.0001) %MON DXC_mean                     =   2.3800813180835E+04
(PID.TID 0000.0001) %MON DXC_sd                       =   8.1860032226643E+03
(PID.TID 0000.0001) %MON DXF_max                      =   3.7059022349104E+04
(PID.TID 0000.0001) %MON DXF_min                      =   3.0723805294807E+03
(PID.TID 0000.0001) %MON DXF_mean                     =   2.3798948774825E+04
(PID.TID 0000.0001) %MON DXF_sd                       =   8.1879800588992E+03
(PID.TID 0000.0001) %MON DXG_max                      =   3.7059157784015E+04
(PID.TID 0000.0001) %MON DXG_min                      =   3.0047495262523E+03
(PID.TID 0000.0001) %MON DXG_mean                     =   2.3794481644939E+04
(PID.TID 0000.0001) %MON DXG_sd                       =   8.1889496423429E+03
(PID.TID 0000.0001) %MON DXV_max                      =   3.7059157784015E+04
(PID.TID 0000.0001) %MON DXV_min                      =   2.1629568665173E+03
(PID.TID 0000.0001) %MON DXV_mean                     =   2.3796344515112E+04
(PID.TID 0000.0001) %MON DXV_sd                       =   8.1869793420507E+03
(PID.TID 0000.0001) %MON YC_max                       =   8.9913133260132E+01
(PID.TID 0000.0001) %MON YC_min                       =  -8.1738031349366E+01
(PID.TID 0000.0001) %MON YC_mean                      =  -3.3127296745764E+00
(PID.TID 0000.0001) %MON YC_sd                        =   5.1089659071036E+01
(PID.TID 0000.0001) %MON YG_max                       =   9.0000000000000E+01
(PID.TID 0000.0001) %MON YG_min                       =  -8.1792581991151E+01
(PID.TID 0000.0001) %MON YG_mean                      =  -3.3044002039880E+00
(PID.TID 0000.0001) %MON YG_sd                        =   5.1093547935263E+01
(PID.TID 0000.0001) %MON DYC_max                      =   3.7059022349102E+04
(PID.TID 0000.0001) %MON DYC_min                      =   3.0520105416159E+03
(PID.TID 0000.0001) %MON DYC_mean                     =   2.3811348460728E+04
(PID.TID 0000.0001) %MON DYC_sd                       =   8.3574939724872E+03
(PID.TID 0000.0001) %MON DYF_max                      =   3.7059022349104E+04
(PID.TID 0000.0001) %MON DYF_min                      =   3.0723805294807E+03
(PID.TID 0000.0001) %MON DYF_mean                     =   2.3814740776873E+04
(PID.TID 0000.0001) %MON DYF_sd                       =   8.3569335359848E+03
(PID.TID 0000.0001) %MON DYG_max                      =   3.7059157784015E+04
(PID.TID 0000.0001) %MON DYG_min                      =   2.4874132124410E+03
(PID.TID 0000.0001) %MON DYG_mean                     =   2.3817925152708E+04
(PID.TID 0000.0001) %MON DYG_sd                       =   8.3532533379986E+03
(PID.TID 0000.0001) %MON DYU_max                      =   3.7059157784015E+04
(PID.TID 0000.0001) %MON DYU_min                      =   2.1629568665173E+03
(PID.TID 0000.0001) %MON DYU_mean                     =   2.3814531793405E+04
(PID.TID 0000.0001) %MON DYU_sd                       =   8.3538181810287E+03
(PID.TID 0000.0001) %MON RA_max                       =   1.2763311352122E+09
(PID.TID 0000.0001) %MON RA_min                       =   1.1056441198889E+07
(PID.TID 0000.0001) %MON RA_mean                      =   6.3308495751397E+08
(PID.TID 0000.0001) %MON RA_sd                        =   3.9429743567688E+08
(PID.TID 0000.0001) %MON RAW_max                      =   1.2764303504080E+09
(PID.TID 0000.0001) %MON RAW_min                      =   9.0232627734530E+06
(PID.TID 0000.0001) %MON RAW_mean                     =   6.3316058013650E+08
(PID.TID 0000.0001) %MON RAW_sd                       =   3.9422129392236E+08
(PID.TID 0000.0001) %MON RAS_max                      =   1.2764303504080E+09
(PID.TID 0000.0001) %MON RAS_min                      =   1.0079660835403E+07
(PID.TID 0000.0001) %MON RAS_mean                     =   6.3290977277178E+08
(PID.TID 0000.0001) %MON RAS_sd                       =   3.9431429742496E+08
(PID.TID 0000.0001) %MON RAZ_max                      =   1.2764303504981E+09
(PID.TID 0000.0001) %MON RAZ_min                      =   5.4299564912373E+06
(PID.TID 0000.0001) %MON RAZ_mean                     =   6.3298539894959E+08
(PID.TID 0000.0001) %MON RAZ_sd                       =   3.9423819996261E+08
(PID.TID 0000.0001) %MON AngleCS_max                  =   1.0000000000000E+00
(PID.TID 0000.0001) %MON AngleCS_min                  =  -9.9999637704667E-01
(PID.TID 0000.0001) %MON AngleCS_mean                 =   4.0601046590283E-01
(PID.TID 0000.0001) %MON AngleCS_sd                   =   5.3869106915356E-01
(PID.TID 0000.0001) %MON AngleSN_max                  =   9.9999637704667E-01
(PID.TID 0000.0001) %MON AngleSN_min                  =  -1.0000000000000E+00
(PID.TID 0000.0001) %MON AngleSN_mean                 =  -4.9547691533129E-01
(PID.TID 0000.0001) %MON AngleSN_sd                   =   5.4723857682491E-01
(PID.TID 0000.0001) 
(PID.TID 0000.0001) // =======================================================
(PID.TID 0000.0001) // Calendar configuration >>> START <<<
(PID.TID 0000.0001) // =======================================================
(PID.TID 0000.0001) 
(PID.TID 0000.0001) modelstart = /* Start time of the model integration [s] */
(PID.TID 0000.0001)                 1.200000000000000E+03
(PID.TID 0000.0001)     ;
(PID.TID 0000.0001) modelend  = /* End time of the model integration [s] */
(PID.TID 0000.0001)                 6.000000000000000E+03
(PID.TID 0000.0001)     ;
(PID.TID 0000.0001) modelStep = /* Time interval for a model forward step [s] */
(PID.TID 0000.0001)                 1.200000000000000E+03
(PID.TID 0000.0001)     ;
(PID.TID 0000.0001) usingGregorianCalendar= /* Calendar Type: Gregorian Calendar */
(PID.TID 0000.0001)                   T
(PID.TID 0000.0001)     ;
(PID.TID 0000.0001) usingJulianCalendar = /* Calendar Type: Julian Calendar */
(PID.TID 0000.0001)                   F
(PID.TID 0000.0001)     ;
(PID.TID 0000.0001) usingNoLeapYearCal  = /* Calendar Type: without Leap Year */
(PID.TID 0000.0001)                   F
(PID.TID 0000.0001)     ;
(PID.TID 0000.0001) usingModelCalendar  = /* Calendar Type: Model Calendar */
(PID.TID 0000.0001)                   F
(PID.TID 0000.0001)     ;
(PID.TID 0000.0001) modelStartDate YYYYMMDD = /* Model start date YYYY-MM-DD */
(PID.TID 0000.0001)                19920101
(PID.TID 0000.0001)     ;
(PID.TID 0000.0001)   modelStartDate HHMMSS = /* Model start date HH-MM-SS  */
(PID.TID 0000.0001)                    2000
(PID.TID 0000.0001)     ;
(PID.TID 0000.0001) modelEndDate   YYYYMMDD = /* Model end date YYYY-MM-DD */
(PID.TID 0000.0001)                19920101
(PID.TID 0000.0001)     ;
(PID.TID 0000.0001)   modelEndDate   HHMMSS = /* Model end date HH-MM-SS  */
(PID.TID 0000.0001)                   14000
(PID.TID 0000.0001)     ;
(PID.TID 0000.0001) intyears = /* Number of calendar years affected by the integration */
(PID.TID 0000.0001)                       1
(PID.TID 0000.0001)     ;
(PID.TID 0000.0001) intmonths= /* Number of calendar months affected by the integration */
(PID.TID 0000.0001)                       1
(PID.TID 0000.0001)     ;
(PID.TID 0000.0001) intdays = /* Number of calendar days affected by the integration */
(PID.TID 0000.0001)                       1
(PID.TID 0000.0001)     ;
(PID.TID 0000.0001) modelIter0 = /* Base timestep number  */
(PID.TID 0000.0001)                       1
(PID.TID 0000.0001)     ;
(PID.TID 0000.0001) modelIterEnd = /* Final timestep number  */
(PID.TID 0000.0001)                       5
(PID.TID 0000.0001)     ;
(PID.TID 0000.0001) modelIntSteps= /* Number of model timesteps  */
(PID.TID 0000.0001)                       4
(PID.TID 0000.0001)     ;
(PID.TID 0000.0001) 
(PID.TID 0000.0001) // =======================================================
(PID.TID 0000.0001) // Calendar configuration  >>> END <<<
(PID.TID 0000.0001) // =======================================================
(PID.TID 0000.0001) 
(PID.TID 0000.0001) GAD_INIT_FIXED: GAD_OlMinSize=  2  0  2
(PID.TID 0000.0001) 
(PID.TID 0000.0001) // ===================================
(PID.TID 0000.0001) // GAD parameters :
(PID.TID 0000.0001) // ===================================
(PID.TID 0000.0001) tempAdvScheme =   /* Temp. Horiz.Advection scheme selector */
(PID.TID 0000.0001)                      30
(PID.TID 0000.0001)     ;
(PID.TID 0000.0001) tempVertAdvScheme =   /* Temp. Vert. Advection scheme selector */
(PID.TID 0000.0001)                       3
(PID.TID 0000.0001)     ;
(PID.TID 0000.0001) tempMultiDimAdvec =   /* use Muti-Dim Advec method for Temp */
(PID.TID 0000.0001)                   T
(PID.TID 0000.0001)     ;
(PID.TID 0000.0001) tempSOM_Advection = /* use 2nd Order Moment Advection for Temp */
(PID.TID 0000.0001)                   F
(PID.TID 0000.0001)     ;
(PID.TID 0000.0001) AdamsBashforthGt = /* apply Adams-Bashforth extrapolation on Gt */
(PID.TID 0000.0001)                   F
(PID.TID 0000.0001)     ;
(PID.TID 0000.0001) AdamsBashforth_T = /* apply Adams-Bashforth extrapolation on Temp */
(PID.TID 0000.0001)                   F
(PID.TID 0000.0001)     ;
(PID.TID 0000.0001) saltAdvScheme =   /* Salt. Horiz.advection scheme selector */
(PID.TID 0000.0001)                      30
(PID.TID 0000.0001)     ;
(PID.TID 0000.0001) saltVertAdvScheme =   /* Salt. Vert. Advection scheme selector */
(PID.TID 0000.0001)                       3
(PID.TID 0000.0001)     ;
(PID.TID 0000.0001) saltMultiDimAdvec =   /* use Muti-Dim Advec method for Salt */
(PID.TID 0000.0001)                   T
(PID.TID 0000.0001)     ;
(PID.TID 0000.0001) saltSOM_Advection = /* use 2nd Order Moment Advection for Salt */
(PID.TID 0000.0001)                   F
(PID.TID 0000.0001)     ;
(PID.TID 0000.0001) AdamsBashforthGs = /* apply Adams-Bashforth extrapolation on Gs */
(PID.TID 0000.0001)                   F
(PID.TID 0000.0001)     ;
(PID.TID 0000.0001) AdamsBashforth_S = /* apply Adams-Bashforth extrapolation on Salt */
(PID.TID 0000.0001)                   F
(PID.TID 0000.0001)     ;
(PID.TID 0000.0001) // ===================================
(PID.TID 0000.0001) 
(PID.TID 0000.0001) // =======================================================
(PID.TID 0000.0001) // External forcing (EXF) configuration >>> START <<<
(PID.TID 0000.0001) // =======================================================
(PID.TID 0000.0001) 
(PID.TID 0000.0001)  EXF general parameters:
(PID.TID 0000.0001) 
(PID.TID 0000.0001) exf_iprec = /* exf file precision */
(PID.TID 0000.0001)                      32
(PID.TID 0000.0001)     ;
(PID.TID 0000.0001) useExfYearlyFields = /* add extension _YEAR to input file names */
(PID.TID 0000.0001)                   T
(PID.TID 0000.0001)     ;
(PID.TID 0000.0001) twoDigitYear = /* use 2-digit year extension */
(PID.TID 0000.0001)                   F
(PID.TID 0000.0001)     ;
(PID.TID 0000.0001) useExfCheckRange = /* check for fields range */
(PID.TID 0000.0001)                   F
(PID.TID 0000.0001)     ;
(PID.TID 0000.0001) exf_output_interp = /* output directly interpolation result */
(PID.TID 0000.0001)                   F
(PID.TID 0000.0001)     ;
(PID.TID 0000.0001) exf_debugLev = /* select EXF-debug printing level */
(PID.TID 0000.0001)                       1
(PID.TID 0000.0001)     ;
(PID.TID 0000.0001) exf_monFreq  = /* EXF monitor frequency [ s ] */
(PID.TID 0000.0001)                 1.000000000000000E+00
(PID.TID 0000.0001)     ;
(PID.TID 0000.0001) repeatPeriod = /* period for cycling forcing dataset [ s ] */
(PID.TID 0000.0001)                 0.000000000000000E+00
(PID.TID 0000.0001)     ;
(PID.TID 0000.0001) climTempFreeze= /* Minimum climatological temperature [deg.C] */
(PID.TID 0000.0001)                -1.900000000000000E+00
(PID.TID 0000.0001)     ;
(PID.TID 0000.0001) windStressMax = /* Maximum absolute windstress [ Pa ] */
(PID.TID 0000.0001)                 2.000000000000000E+00
(PID.TID 0000.0001)     ;
(PID.TID 0000.0001) stressIsOnCgrid = /* set u,v_stress on Arakawa C-grid */
(PID.TID 0000.0001)                   F
(PID.TID 0000.0001)     ;
(PID.TID 0000.0001) rotateStressOnAgrid = /* rotate u,v_stress on Arakawa A-grid */
(PID.TID 0000.0001)                   F
(PID.TID 0000.0001)     ;
(PID.TID 0000.0001) cen2kel = /* conversion of deg. Centigrade to Kelvin [K] */
(PID.TID 0000.0001)                 2.731500000000000E+02
(PID.TID 0000.0001)     ;
(PID.TID 0000.0001) gravity_mks= /* gravitational acceleration [m/s^2] */
(PID.TID 0000.0001)                 9.810000000000000E+00
(PID.TID 0000.0001)     ;
(PID.TID 0000.0001) atmrho =  /* mean atmospheric density [kg/m^3] */
(PID.TID 0000.0001)                 1.200000000000000E+00
(PID.TID 0000.0001)     ;
(PID.TID 0000.0001) atmcp =  /* mean atmospheric specific heat [J/kg/K] */
(PID.TID 0000.0001)                 1.005000000000000E+03
(PID.TID 0000.0001)     ;
(PID.TID 0000.0001) flamb =  /* latent heat of evaporation [J/kg] */
(PID.TID 0000.0001)                 2.500000000000000E+06
(PID.TID 0000.0001)     ;
(PID.TID 0000.0001) flami =  /* latent heat of pure-ice melting [J/kg] */
(PID.TID 0000.0001)                 3.340000000000000E+05
(PID.TID 0000.0001)     ;
(PID.TID 0000.0001) cvapor_fac = /* const. for Saturation calculation [?] */
(PID.TID 0000.0001)                 6.403800000000000E+05
(PID.TID 0000.0001)     ;
(PID.TID 0000.0001) cvapor_exp = /* const. for Saturation calculation [?] */
(PID.TID 0000.0001)                 5.107400000000000E+03
(PID.TID 0000.0001)     ;
(PID.TID 0000.0001) cvapor_fac_ice= /* const. for Saturation calculation [?] */
(PID.TID 0000.0001)                 1.163780000000000E+07
(PID.TID 0000.0001)     ;
(PID.TID 0000.0001) cvapor_exp_ice= /* const. for Saturation calculation [?] */
(PID.TID 0000.0001)                 5.897800000000000E+03
(PID.TID 0000.0001)     ;
(PID.TID 0000.0001) humid_fac = /* humidity coef. in virtual temp. [(kg/kg)^-1] */
(PID.TID 0000.0001)                 6.060000000000000E-01
(PID.TID 0000.0001)     ;
(PID.TID 0000.0001) gamma_blk = /* adiabatic lapse rate [?] */
(PID.TID 0000.0001)                 1.000000000000000E-02
(PID.TID 0000.0001)     ;
(PID.TID 0000.0001) saltsat = /* reduction of Qsat over salty water [-] */
(PID.TID 0000.0001)                 9.800000000000000E-01
(PID.TID 0000.0001)     ;
(PID.TID 0000.0001) noNegativeEvap = /* prevent negative Evaporation */
(PID.TID 0000.0001)                   F
(PID.TID 0000.0001)     ;
(PID.TID 0000.0001) sstExtrapol = /* extrapolation coeff from lev. 1 & 2 to surf [-] */
(PID.TID 0000.0001)                 0.000000000000000E+00
(PID.TID 0000.0001)     ;
(PID.TID 0000.0001) cDrag_1 = /* coef used in drag calculation [?] */
(PID.TID 0000.0001)                 2.700000000000000E-03
(PID.TID 0000.0001)     ;
(PID.TID 0000.0001) cDrag_2 = /* coef used in drag calculation [?] */
(PID.TID 0000.0001)                 1.420000000000000E-04
(PID.TID 0000.0001)     ;
(PID.TID 0000.0001) cDrag_3 = /* coef used in drag calculation [?] */
(PID.TID 0000.0001)                 7.640000000000000E-05
(PID.TID 0000.0001)     ;
(PID.TID 0000.0001) cStanton_1 = /* coef used in Stanton number calculation [?] */
(PID.TID 0000.0001)                 3.270000000000000E-02
(PID.TID 0000.0001)     ;
(PID.TID 0000.0001) cStanton_2 = /* coef used in Stanton number calculation [?] */
(PID.TID 0000.0001)                 1.800000000000000E-02
(PID.TID 0000.0001)     ;
(PID.TID 0000.0001) cDalton = /* coef used in Dalton number calculation [?] */
(PID.TID 0000.0001)                 3.460000000000000E-02
(PID.TID 0000.0001)     ;
(PID.TID 0000.0001) exf_scal_BulkCdn= /* Drag coefficient scaling factor [-] */
(PID.TID 0000.0001)                 1.000000000000000E+00
(PID.TID 0000.0001)     ;
(PID.TID 0000.0001) zolmin = /* minimum stability parameter [?] */
(PID.TID 0000.0001)                -1.000000000000000E+02
(PID.TID 0000.0001)     ;
(PID.TID 0000.0001) psim_fac = /* coef used in turbulent fluxes calculation [-] */
(PID.TID 0000.0001)                 5.000000000000000E+00
(PID.TID 0000.0001)     ;
(PID.TID 0000.0001) zref =  /* reference height [ m ] */
(PID.TID 0000.0001)                 1.000000000000000E+01
(PID.TID 0000.0001)     ;
(PID.TID 0000.0001) hu =  /* height of mean wind [ m ] */
(PID.TID 0000.0001)                 1.000000000000000E+01
(PID.TID 0000.0001)     ;
(PID.TID 0000.0001) ht =  /* height of mean temperature [ m ] */
(PID.TID 0000.0001)                 2.000000000000000E+00
(PID.TID 0000.0001)     ;
(PID.TID 0000.0001) hq =  /* height of mean spec.humidity [ m ] */
(PID.TID 0000.0001)                 2.000000000000000E+00
(PID.TID 0000.0001)     ;
(PID.TID 0000.0001) uMin = /* minimum wind speed [m/s] */
(PID.TID 0000.0001)                 5.000000000000000E-01
(PID.TID 0000.0001)     ;
(PID.TID 0000.0001) useStabilityFct_overIce= /* transfert Coeffs over sea-ice depend on stability */
(PID.TID 0000.0001)                   F
(PID.TID 0000.0001)     ;
(PID.TID 0000.0001) exf_iceCd = /* drag coefficient over sea-ice (fixed) [-] */
(PID.TID 0000.0001)                 1.630000000000000E-03
(PID.TID 0000.0001)     ;
(PID.TID 0000.0001) exf_iceCe = /* transfert coeff. over sea-ice, for Evap (fixed) [-] */
(PID.TID 0000.0001)                 1.630000000000000E-03
(PID.TID 0000.0001)     ;
(PID.TID 0000.0001) exf_iceCh = /* transfert coeff. over sea-ice, Sens.Heat.(fixed)[-] */
(PID.TID 0000.0001)                 1.630000000000000E-03
(PID.TID 0000.0001)     ;
(PID.TID 0000.0001) exf_albedo =  /* Sea-water albedo [-] */
(PID.TID 0000.0001)                 1.000000000000000E-01
(PID.TID 0000.0001)     ;
(PID.TID 0000.0001) useExfZenAlbedo = /* Sea-water albedo varies with zenith angle */
(PID.TID 0000.0001)                   T
(PID.TID 0000.0001)     ;
(PID.TID 0000.0001) select_ZenAlbedo = /* Sea-water albedo computation method */
(PID.TID 0000.0001)                       1
(PID.TID 0000.0001)     ;
(PID.TID 0000.0001) useExfZenIncoming = /* compute incoming solar radiation */
(PID.TID 0000.0001)                   T
(PID.TID 0000.0001)     ;
(PID.TID 0000.0001) ocean_emissivity = /* longwave ocean-surface emissivity [-] */
(PID.TID 0000.0001)                 9.700000000000000E-01
(PID.TID 0000.0001)     ;
(PID.TID 0000.0001) ice_emissivity = /* longwave seaice emissivity [-] */
(PID.TID 0000.0001)                 9.500000000000000E-01
(PID.TID 0000.0001)     ;
(PID.TID 0000.0001) snow_emissivity = /* longwave snow  emissivity [-] */
(PID.TID 0000.0001)                 9.500000000000000E-01
(PID.TID 0000.0001)     ;
(PID.TID 0000.0001) 
(PID.TID 0000.0001)  EXF main CPP flags:
(PID.TID 0000.0001) 
(PID.TID 0000.0001) // USE_EXF_INTERPOLATION:              defined
(PID.TID 0000.0001) // ALLOW_ATM_TEMP:                     defined
(PID.TID 0000.0001) // ALLOW_ATM_WIND (useAtmWind):        defined
(PID.TID 0000.0001) // ALLOW_DOWNWARD_RADIATION:           defined
(PID.TID 0000.0001) // ALLOW_BULKFORMULAE:                 defined
(PID.TID 0000.0001) 
(PID.TID 0000.0001)    Zonal wind forcing starts at                          0.
(PID.TID 0000.0001)    Zonal wind forcing period is                      21600.
(PID.TID 0000.0001)    Zonal wind forcing repeat-cycle is                    0.
(PID.TID 0000.0001)    Zonal wind forcing is read from file:
(PID.TID 0000.0001)    >> era_xx/EIG_u10m <<
(PID.TID 0000.0001)    interpolate "uwind" (method= 12 ):
(PID.TID 0000.0001)    lon0=   0.00000, nlon=   512, lon_inc= 0.7031250
(PID.TID 0000.0001)    lat0= -89.46282, nlat=   256, inc(min,max)= 0.69587 0.70174
(PID.TID 0000.0001) 
(PID.TID 0000.0001)    Meridional wind forcing starts at                     0.
(PID.TID 0000.0001)    Meridional wind forcing period is                 21600.
(PID.TID 0000.0001)    Meridional wind forcing repeat-cycle is               0.
(PID.TID 0000.0001)    Meridional wind forcing is read from file:
(PID.TID 0000.0001)    >> era_xx/EIG_v10m <<
(PID.TID 0000.0001)    interpolate "vwind" (method= 22 ):
(PID.TID 0000.0001)    lon0=   0.00000, nlon=   512, lon_inc= 0.7031250
(PID.TID 0000.0001)    lat0= -89.46282, nlat=   256, inc(min,max)= 0.69587 0.70174
(PID.TID 0000.0001)     Interp. U & V comp. together: uvInterp_wind =    T
(PID.TID 0000.0001) 
(PID.TID 0000.0001)    Atmospheric temperature starts at                     0.
(PID.TID 0000.0001)    Atmospheric temperature period is                 21600.
(PID.TID 0000.0001)    Atmospheric temperature repeat-cycle is               0.
(PID.TID 0000.0001)    Atmospheric temperature is read from file:
(PID.TID 0000.0001)    >> era_xx/EIG_tmp2m_degC_plus_ECCO_v4r1_ctrl <<
(PID.TID 0000.0001)    interpolate "atemp" (method=  1 ):
(PID.TID 0000.0001)    lon0=   0.00000, nlon=   512, lon_inc= 0.7031250
(PID.TID 0000.0001)    lat0= -89.46282, nlat=   256, inc(min,max)= 0.69587 0.70174
(PID.TID 0000.0001) 
(PID.TID 0000.0001)    Atmospheric specific humidity starts at               0.
(PID.TID 0000.0001)    Atmospheric specific humidity period is           21600.
(PID.TID 0000.0001)    Atmospheric specific humidity rep-cycle is            0.
(PID.TID 0000.0001)    Atmospheric specific humidity is read from file:
(PID.TID 0000.0001)    >> era_xx/EIG_spfh2m_plus_ECCO_v4r1_ctrl <<
(PID.TID 0000.0001)    interpolate "aqh" (method=  1 ):
(PID.TID 0000.0001)    lon0=   0.00000, nlon=   512, lon_inc= 0.7031250
(PID.TID 0000.0001)    lat0= -89.46282, nlat=   256, inc(min,max)= 0.69587 0.70174
(PID.TID 0000.0001) 
(PID.TID 0000.0001) // ALLOW_READ_TURBFLUXES:          NOT defined
(PID.TID 0000.0001) // EXF_READ_EVAP:                  NOT defined
(PID.TID 0000.0001) 
(PID.TID 0000.0001)    Precipitation data starts at                      10800.
(PID.TID 0000.0001)    Precipitation data period is                      21600.
(PID.TID 0000.0001)    Precipitation data repeat-cycle is                    0.
(PID.TID 0000.0001)    Precipitation data is read from file:
(PID.TID 0000.0001)    >> era_xx/EIG_rain_plus_ECCO_v4r1_ctrl <<
(PID.TID 0000.0001)    interpolate "precip" (method=  1 ):
(PID.TID 0000.0001)    lon0=   0.00000, nlon=   512, lon_inc= 0.7031250
(PID.TID 0000.0001)    lat0= -89.46282, nlat=   256, inc(min,max)= 0.69587 0.70174
(PID.TID 0000.0001) 
(PID.TID 0000.0001) // ALLOW_RUNOFF:                       defined
(PID.TID 0000.0001)    Runoff data period is                               -12.
(PID.TID 0000.0001)    Runoff data is read from file:
(PID.TID 0000.0001)    >> runoff-2d-Fekete-1deg-mon-V4-SMOOTH.bin <<
(PID.TID 0000.0001)    assume "runoff" on model-grid (no interpolation)
(PID.TID 0000.0001) 
(PID.TID 0000.0001) // ALLOW_RUNOFTEMP:                NOT defined
(PID.TID 0000.0001) // ALLOW_SALTFLX:                  NOT defined
(PID.TID 0000.0001) 
(PID.TID 0000.0001)    Downward shortwave flux starts at                 10800.
(PID.TID 0000.0001)    Downward shortwave flux period is                 21600.
(PID.TID 0000.0001)    Downward shortwave flux repeat-cycle is               0.
(PID.TID 0000.0001)    Downward shortwave flux is read from file:
(PID.TID 0000.0001)    >> era_xx/EIG_dsw_plus_ECCO_v4r1_ctrl <<
(PID.TID 0000.0001)    interpolate "swdown" (method=  1 ):
(PID.TID 0000.0001)    lon0=   0.00000, nlon=   512, lon_inc= 0.7031250
(PID.TID 0000.0001)    lat0= -89.46282, nlat=   256, inc(min,max)= 0.69587 0.70174
(PID.TID 0000.0001) 
(PID.TID 0000.0001)    Downward longwave flux starts at                  10800.
(PID.TID 0000.0001)    Downward longwave flux period is                  21600.
(PID.TID 0000.0001)    Downward longwave flux repeat-cycle is                0.
(PID.TID 0000.0001)    Downward longwave flux is read from file:
(PID.TID 0000.0001)    >> era_xx/EIG_dlw_plus_ECCO_v4r1_ctrl <<
(PID.TID 0000.0001)    interpolate "lwdown" (method=  1 ):
(PID.TID 0000.0001)    lon0=   0.00000, nlon=   512, lon_inc= 0.7031250
(PID.TID 0000.0001)    lat0= -89.46282, nlat=   256, inc(min,max)= 0.69587 0.70174
(PID.TID 0000.0001) 
(PID.TID 0000.0001)    Atmospheric pCO2 forcing period is             86400.
(PID.TID 0000.0001)    Atmospheric pCO2 forcing is read from file:
(PID.TID 0000.0001)    >>  apCO2  <<
(PID.TID 0000.0001) 
(PID.TID 0000.0001) // =======================================================
(PID.TID 0000.0001) // External forcing (EXF) climatology configuration :
(PID.TID 0000.0001) // =======================================================
(PID.TID 0000.0001) 
(PID.TID 0000.0001) // ALLOW_CLIMSST_RELAXATION:           defined
(PID.TID 0000.0001)    climsst relaxation is NOT used
(PID.TID 0000.0001) 
(PID.TID 0000.0001) // ALLOW_CLIMSSS_RELAXATION:           defined
(PID.TID 0000.0001)    climsss relaxation is NOT used
(PID.TID 0000.0001) 
(PID.TID 0000.0001) // =======================================================
(PID.TID 0000.0001) // External forcing (EXF) configuration  >>> END <<<
(PID.TID 0000.0001) // =======================================================
(PID.TID 0000.0001) 
(PID.TID 0000.0001) // =======================================================
(PID.TID 0000.0001) // Darwin loading parameters
(PID.TID 0000.0001) // =======================================================
(PID.TID 0000.0001) // =======================================================
(PID.TID 0000.0001) // Seaice configuration (SEAICE_PARM01) >>> START <<<
(PID.TID 0000.0001) // =======================================================
(PID.TID 0000.0001) 
(PID.TID 0000.0001)    Seaice time stepping configuration   > START <
(PID.TID 0000.0001)    ----------------------------------------------
(PID.TID 0000.0001) SEAICE_deltaTtherm= /* thermodynamic timestep */
(PID.TID 0000.0001)                 1.200000000000000E+03
(PID.TID 0000.0001)     ;
(PID.TID 0000.0001) SEAICE_deltaTdyn  = /* dynamic timestep */
(PID.TID 0000.0001)                 1.200000000000000E+03
(PID.TID 0000.0001)     ;
(PID.TID 0000.0001) SEAICE_deltaTevp  = /* EVP timestep */
(PID.TID 0000.0001)                 1.234567000000000E+05
(PID.TID 0000.0001)     ;
(PID.TID 0000.0001) SEAICEuseBDF2  = /* use backw. differencing for mom. eq. */
(PID.TID 0000.0001)                   F
(PID.TID 0000.0001)     ;
(PID.TID 0000.0001) SEAICErestoreUnderIce  = /* restore T and S under ice */
(PID.TID 0000.0001)                   T
(PID.TID 0000.0001)     ;
(PID.TID 0000.0001) 
(PID.TID 0000.0001)    Seaice dynamics configuration   > START <
(PID.TID 0000.0001)    ------------------------------------------
(PID.TID 0000.0001) SEAICEuseDYNAMICS = /* use dynamics */
(PID.TID 0000.0001)                   T
(PID.TID 0000.0001)     ;
(PID.TID 0000.0001) model grid type   = /* type of sea ice model grid */
(PID.TID 0000.0001)               'C-GRID'
(PID.TID 0000.0001)     ;
(PID.TID 0000.0001) SEAICEuseStrImpCpl = /* use strongly implicit coupling */
(PID.TID 0000.0001)                   F
(PID.TID 0000.0001)     ;
(PID.TID 0000.0001) SEAICEusePicardAsPrecon = /* Picard as preconditioner */
(PID.TID 0000.0001)                   F
(PID.TID 0000.0001)     ;
(PID.TID 0000.0001) SEAICEuseLSR      = /* use default Picard-LSR solver */
(PID.TID 0000.0001)                   T
(PID.TID 0000.0001)     ;
(PID.TID 0000.0001) SEAICEuseKrylov   = /* use Picard-Krylov solver */
(PID.TID 0000.0001)                   F
(PID.TID 0000.0001)     ;
(PID.TID 0000.0001) SEAICEuseEVP      = /* use EVP solver rather than LSR */
(PID.TID 0000.0001)                   F
(PID.TID 0000.0001)     ;
(PID.TID 0000.0001) SEAICEuseJFNK     = /* use JFNK solver */
(PID.TID 0000.0001)                   F
(PID.TID 0000.0001)     ;
(PID.TID 0000.0001) SEAICEuseFREEDRIFT = /* use free drift solution */
(PID.TID 0000.0001)                   F
(PID.TID 0000.0001)     ;
(PID.TID 0000.0001) OCEAN_drag        = /* air-ocean drag coefficient */
(PID.TID 0000.0001)                 1.000000000000000E-03
(PID.TID 0000.0001)     ;
(PID.TID 0000.0001) SEAICE_drag       = /* air-ice drag coefficient */
(PID.TID 0000.0001)                 2.000000000000000E-03
(PID.TID 0000.0001)     ;
(PID.TID 0000.0001) SEAICE_drag_south      = /* Southern Ocean SEAICE_drag */
(PID.TID 0000.0001)                 2.000000000000000E-03
(PID.TID 0000.0001)     ;
(PID.TID 0000.0001) SEAICE_waterDrag  = /* water-ice drag * density */
(PID.TID 0000.0001)                 5.500000000000000E+00
(PID.TID 0000.0001)     ;
(PID.TID 0000.0001) SEAICE_waterDrag_south = /* Southern Ocean waterDrag */
(PID.TID 0000.0001)                 5.500000000000000E+00
(PID.TID 0000.0001)     ;
(PID.TID 0000.0001) SEAICEuseTilt     = /* include surface tilt in dyna. */
(PID.TID 0000.0001)                   F
(PID.TID 0000.0001)     ;
(PID.TID 0000.0001) SEAICEuseTEM      = /* use truncated ellipse rheology */
(PID.TID 0000.0001)                   F
(PID.TID 0000.0001)     ;
(PID.TID 0000.0001) SEAICE_strength   = /* sea-ice strength Pstar */
(PID.TID 0000.0001)                 2.750000000000000E+04
(PID.TID 0000.0001)     ;
(PID.TID 0000.0001) SEAICE_cStar      = /* sea-ice strength parameter cStar */
(PID.TID 0000.0001)                 2.000000000000000E+01
(PID.TID 0000.0001)     ;
(PID.TID 0000.0001) SEAICEpressReplFac= /* press. replacement method factor */
(PID.TID 0000.0001)                 1.000000000000000E+00
(PID.TID 0000.0001)     ;
(PID.TID 0000.0001) SEAICE_tensilFac  = /* sea-ice tensile strength factor */
(PID.TID 0000.0001)                 0.000000000000000E+00
(PID.TID 0000.0001)     ;
(PID.TID 0000.0001) SEAICE_tensilDepth= /* crit. depth for tensile strength */
(PID.TID 0000.0001)                 0.000000000000000E+00
(PID.TID 0000.0001)     ;
(PID.TID 0000.0001) SEAICEpresH0   = /* sea-ice strength Heff threshold */
(PID.TID 0000.0001)                 2.000000000000000E+00
(PID.TID 0000.0001)     ;
(PID.TID 0000.0001) SEAICEpresPow0 = /* exponent for Heff<SEAICEpresH0 */
(PID.TID 0000.0001)                       1
(PID.TID 0000.0001)     ;
(PID.TID 0000.0001) SEAICEpresPow1 = /* exponent for Heff>SEAICEpresH0 */
(PID.TID 0000.0001)                       3
(PID.TID 0000.0001)     ;
(PID.TID 0000.0001) SEAICEetaZmethod = /* method computing eta at Z-point */
(PID.TID 0000.0001)                       0
(PID.TID 0000.0001)     ;
(PID.TID 0000.0001) SEAICE_zetaMin    = /* lower bound for viscosity */
(PID.TID 0000.0001)                 0.000000000000000E+00
(PID.TID 0000.0001)     ;
(PID.TID 0000.0001) SEAICE_eccen    = /* elliptical yield curve eccent */
(PID.TID 0000.0001)                 2.000000000000000E+00
(PID.TID 0000.0001)     ;
(PID.TID 0000.0001) SEAICEstressFactor    = /* wind stress scaling factor */
(PID.TID 0000.0001)                 1.000000000000000E+00
(PID.TID 0000.0001)     ;
(PID.TID 0000.0001) SEAICE_airTurnAngle    = /* air-ice turning angle */
(PID.TID 0000.0001)                 0.000000000000000E+00
(PID.TID 0000.0001)     ;
(PID.TID 0000.0001) SEAICE_waterTurnAngle  = /* ice-water turning angle */
(PID.TID 0000.0001)                 0.000000000000000E+00
(PID.TID 0000.0001)     ;
(PID.TID 0000.0001) SEAICEuseMetricTerms = /* use metric terms */
(PID.TID 0000.0001)                   T
(PID.TID 0000.0001)     ;
(PID.TID 0000.0001) SEAICE_no_slip    = /* no slip boundary conditions */
(PID.TID 0000.0001)                   F
(PID.TID 0000.0001)     ;
(PID.TID 0000.0001) SEAICE_2ndOrderBC = /* 2nd order no slip boundary conditions */
(PID.TID 0000.0001)                   F
(PID.TID 0000.0001)     ;
(PID.TID 0000.0001) SEAICE_clipVeloctities = /* impose max. vels. */
(PID.TID 0000.0001)                   T
(PID.TID 0000.0001)     ;
(PID.TID 0000.0001) useHB87stressCoupling  = /* altern. ice-ocean stress */
(PID.TID 0000.0001)                   F
(PID.TID 0000.0001)     ;
(PID.TID 0000.0001) SEAICEscaleSurfStress  = /* scale atm. and ocean-surface stress with AREA */
(PID.TID 0000.0001)                   F
(PID.TID 0000.0001)     ;
(PID.TID 0000.0001) SEAICE_maskRHS    = /* mask RHS of solver */
(PID.TID 0000.0001)                   F
(PID.TID 0000.0001)     ;
(PID.TID 0000.0001) SEAICEaddSnowMass = /* add snow mass to seaiceMassC/U/V */
(PID.TID 0000.0001)                   F
(PID.TID 0000.0001)     ;
(PID.TID 0000.0001) LSR_mixIniGuess = /* mix free-drift sol. into LSR initial Guess */
(PID.TID 0000.0001)                       0
(PID.TID 0000.0001)     ;
(PID.TID 0000.0001) SEAICE_LSRrelaxU  = /* LSR solver: relaxation parameter */
(PID.TID 0000.0001)                 9.500000000000000E-01
(PID.TID 0000.0001)     ;
(PID.TID 0000.0001) SEAICE_LSRrelaxV  = /* LSR solver: relaxation parameter */
(PID.TID 0000.0001)                 9.500000000000000E-01
(PID.TID 0000.0001)     ;
(PID.TID 0000.0001) LSR_ERROR         = /* sets accuracy of LSR solver */
(PID.TID 0000.0001)                 2.000000000000000E-04
(PID.TID 0000.0001)     ;
(PID.TID 0000.0001) SOLV_NCHECK       = /* test interval for LSR solver */
(PID.TID 0000.0001)                       2
(PID.TID 0000.0001)     ;
(PID.TID 0000.0001) SEAICEuseMultiTileSolver = /* use full domain tri-diag solver */
(PID.TID 0000.0001)                   F
(PID.TID 0000.0001)     ;
(PID.TID 0000.0001) SEAICE_OLx = /* overlap for LSR/preconditioner */
(PID.TID 0000.0001)                       0
(PID.TID 0000.0001)     ;
(PID.TID 0000.0001) SEAICE_OLy = /* overlap for LSR/preconditioner */
(PID.TID 0000.0001)                       0
(PID.TID 0000.0001)     ;
(PID.TID 0000.0001) SEAICEnonLinIterMax = /* max. number of nonlinear solver steps */
(PID.TID 0000.0001)                       2
(PID.TID 0000.0001)     ;
(PID.TID 0000.0001) SEAICElinearIterMax = /* max. number of linear solver steps */
(PID.TID 0000.0001)                    1500
(PID.TID 0000.0001)     ;
(PID.TID 0000.0001) SEAICEnonLinTol     = /* non-linear solver tolerance */
(PID.TID 0000.0001)                 0.000000000000000E+00
(PID.TID 0000.0001)     ;
(PID.TID 0000.0001) 
(PID.TID 0000.0001)    Seaice advection diffusion config,   > START <
(PID.TID 0000.0001)    -----------------------------------------------
(PID.TID 0000.0001) SEAICEmomAdvection = /* advect sea ice momentum */
(PID.TID 0000.0001)                   F
(PID.TID 0000.0001)     ;
(PID.TID 0000.0001) SEAICEadvHeff = /* advect effective ice thickness */
(PID.TID 0000.0001)                   T
(PID.TID 0000.0001)     ;
(PID.TID 0000.0001) SEAICEadvArea = /* advect fractional ice area */
(PID.TID 0000.0001)                   T
(PID.TID 0000.0001)     ;
(PID.TID 0000.0001) SEAICEadvSnow = /* advect snow layer together with ice */
(PID.TID 0000.0001)                   T
(PID.TID 0000.0001)     ;
(PID.TID 0000.0001) SEAICEadvScheme   = /* advection scheme for ice */
(PID.TID 0000.0001)                      30
(PID.TID 0000.0001)     ;
(PID.TID 0000.0001) SEAICEadvSchArea   = /* advection scheme for area */
(PID.TID 0000.0001)                      30
(PID.TID 0000.0001)     ;
(PID.TID 0000.0001) SEAICEadvSchHeff   = /* advection scheme for thickness */
(PID.TID 0000.0001)                      30
(PID.TID 0000.0001)     ;
(PID.TID 0000.0001) SEAICEadvSchSnow   = /* advection scheme for snow */
(PID.TID 0000.0001)                      30
(PID.TID 0000.0001)     ;
(PID.TID 0000.0001) SEAICEdiffKhArea   = /* diffusivity (m^2/s) for area */
(PID.TID 0000.0001)                 4.000000000000000E+02
(PID.TID 0000.0001)     ;
(PID.TID 0000.0001) SEAICEdiffKhHeff   = /* diffusivity (m^2/s) for heff */
(PID.TID 0000.0001)                 4.000000000000000E+02
(PID.TID 0000.0001)     ;
(PID.TID 0000.0001) SEAICEdiffKhSnow   = /* diffusivity (m^2/s) for snow */
(PID.TID 0000.0001)                 4.000000000000000E+02
(PID.TID 0000.0001)     ;
(PID.TID 0000.0001) DIFF1             = /* parameter used in advect.F [m/s] */
(PID.TID 0000.0001)                 0.000000000000000E+00
(PID.TID 0000.0001)     ;
(PID.TID 0000.0001) 
(PID.TID 0000.0001)    Seaice thermodynamics configuration   > START <
(PID.TID 0000.0001)    -----------------------------------------------
(PID.TID 0000.0001) SEAICE_rhoIce     = /* density of sea ice (kg/m3) */
(PID.TID 0000.0001)                 9.100000000000000E+02
(PID.TID 0000.0001)     ;
(PID.TID 0000.0001) SEAICE_rhoSnow    = /* density of snow (kg/m3) */
(PID.TID 0000.0001)                 3.300000000000000E+02
(PID.TID 0000.0001)     ;
(PID.TID 0000.0001) SEAICE_rhoAir     = /* density of air (kg/m3) */
(PID.TID 0000.0001)                 1.200000000000000E+00
(PID.TID 0000.0001)     ;
(PID.TID 0000.0001) usePW79thermodynamics  = /* default 0-layer TD */
(PID.TID 0000.0001)                   T
(PID.TID 0000.0001)     ;
(PID.TID 0000.0001) SEAICE_lhEvap     = /* latent heat of evaporation */
(PID.TID 0000.0001)                 2.500000000000000E+06
(PID.TID 0000.0001)     ;
(PID.TID 0000.0001) SEAICE_lhFusion   = /* latent heat of fusion */
(PID.TID 0000.0001)                 3.340000000000000E+05
(PID.TID 0000.0001)     ;
(PID.TID 0000.0001) SEAICE_mcPheePiston = /* turbulent flux "piston velocity" a la McPhee (m/s) */
(PID.TID 0000.0001)                 3.858024691358025E-05
(PID.TID 0000.0001)     ;
(PID.TID 0000.0001) SEAICE_mcPheeTaper = /* tapering of turbulent flux (0.< <1.) for AREA=1. */
(PID.TID 0000.0001)                 0.000000000000000E+00
(PID.TID 0000.0001)     ;
(PID.TID 0000.0001) SEAICE_mcPheeStepFunc = /* replace linear tapering with step funct. */
(PID.TID 0000.0001)                   F
(PID.TID 0000.0001)     ;
(PID.TID 0000.0001) SEAICE_frazilFrac = /* frazil (T<tempFrz) to seaice conversion rate (0.< <1.) */
(PID.TID 0000.0001)                 1.000000000000000E+00
(PID.TID 0000.0001)     ;
(PID.TID 0000.0001) SEAICE_tempFrz0   = /* freezing temp. of sea water (intercept) */
(PID.TID 0000.0001)                -1.960000000000000E+00
(PID.TID 0000.0001)     ;
(PID.TID 0000.0001) SEAICE_dTempFrz_dS= /* freezing temp. of sea water (slope) */
(PID.TID 0000.0001)                 0.000000000000000E+00
(PID.TID 0000.0001)     ;
(PID.TID 0000.0001) SEAICE_growMeltByConv  = /* grow,melt by vert. conv. */
(PID.TID 0000.0001)                   F
(PID.TID 0000.0001)     ;
(PID.TID 0000.0001) SEAICE_doOpenWaterGrowth = /* grow by open water */
(PID.TID 0000.0001)                   T
(PID.TID 0000.0001)     ;
(PID.TID 0000.0001) SEAICE_doOpenWaterMelt = /* melt by open water */
(PID.TID 0000.0001)                   F
(PID.TID 0000.0001)     ;
(PID.TID 0000.0001) SEAICE_areaGainFormula = /* ice cover gain formula (1,2)*/
(PID.TID 0000.0001)                       1
(PID.TID 0000.0001)     1=from growth by ATM
(PID.TID 0000.0001)     2=from predicted growth by ATM
(PID.TID 0000.0001)     ;
(PID.TID 0000.0001) SEAICE_areaLossFormula = /* ice cover loss formula (1,2)*/
(PID.TID 0000.0001)                       2
(PID.TID 0000.0001)     1=from all but only melt conributions by ATM and OCN
(PID.TID 0000.0001)     2=from net melt-grow>0 by ATM and OCN
(PID.TID 0000.0001)     3=from predicted melt by ATM
(PID.TID 0000.0001)     ;
(PID.TID 0000.0001) HO                = /* nominal thickness of new ice */
(PID.TID 0000.0001)                 5.000000000000000E-01
(PID.TID 0000.0001)     ;
(PID.TID 0000.0001) HO_south               = /* Southern Ocean HO */
(PID.TID 0000.0001)                 5.000000000000000E-01
(PID.TID 0000.0001)     ;
(PID.TID 0000.0001) SEAICE_area_max        = /* set to les than 1. to mimic open leads */
(PID.TID 0000.0001)                 9.500000000000000E-01
(PID.TID 0000.0001)     ;
(PID.TID 0000.0001) SEAICE_salt0   = /* constant sea ice salinity */
(PID.TID 0000.0001)                 4.000000000000000E+00
(PID.TID 0000.0001)     ;
(PID.TID 0000.0001) SEAICE_salinityTracer = /* test SITR varia. salinity */
(PID.TID 0000.0001)                   F
(PID.TID 0000.0001)     ;
(PID.TID 0000.0001) SEAICEuseFlooding = /* turn submerged snow into ice */
(PID.TID 0000.0001)                   T
(PID.TID 0000.0001)     ;
(PID.TID 0000.0001) 
(PID.TID 0000.0001)    Seaice air-sea fluxes configuration,   > START <
(PID.TID 0000.0001)    -----------------------------------------------
(PID.TID 0000.0001) SEAICEheatConsFix  = /* accound for ocn<->seaice advect. heat flux */
(PID.TID 0000.0001)                   T
(PID.TID 0000.0001)     ;
(PID.TID 0000.0001) SEAICE_multDim    = /* number of ice categories (1 or 7) */
(PID.TID 0000.0001)                       1
(PID.TID 0000.0001)     ;
(PID.TID 0000.0001) SEAICE_PDF        = /* sea-ice distribution (-) */
(PID.TID 0000.0001)                 1.000000000000000E+00,      /* K =  1 */
(PID.TID 0000.0001)     6 @  0.000000000000000E+00              /* K =  2:  7 */
(PID.TID 0000.0001)     ;
(PID.TID 0000.0001) IMAX_TICE         = /* iterations for ice surface temp */
(PID.TID 0000.0001)                      10
(PID.TID 0000.0001)     ;
(PID.TID 0000.0001) postSolvTempIter= /* flux calculation after surf. temp iter */
(PID.TID 0000.0001)                       2
(PID.TID 0000.0001)     ;
(PID.TID 0000.0001) SEAICE_dryIceAlb  = /* winter albedo */
(PID.TID 0000.0001)                 8.400000000000000E-01
(PID.TID 0000.0001)     ;
(PID.TID 0000.0001) SEAICE_wetIceAlb  = /* summer albedo */
(PID.TID 0000.0001)                 7.800000000000000E-01
(PID.TID 0000.0001)     ;
(PID.TID 0000.0001) SEAICE_drySnowAlb = /* dry snow albedo */
(PID.TID 0000.0001)                 9.000000000000000E-01
(PID.TID 0000.0001)     ;
(PID.TID 0000.0001) SEAICE_wetSnowAlb = /* wet snow albedo */
(PID.TID 0000.0001)                 8.000000000000000E-01
(PID.TID 0000.0001)     ;
(PID.TID 0000.0001) SEAICE_dryIceAlb_south = /* Southern Ocean dryIceAlb */
(PID.TID 0000.0001)                 7.500000000000000E-01
(PID.TID 0000.0001)     ;
(PID.TID 0000.0001) SEAICE_wetIceAlb_south = /* Southern Ocean wetIceAlb */
(PID.TID 0000.0001)                 6.600000000000000E-01
(PID.TID 0000.0001)     ;
(PID.TID 0000.0001) SEAICE_drySnowAlb_south= /* Southern Ocean drySnowAlb */
(PID.TID 0000.0001)                 8.400000000000000E-01
(PID.TID 0000.0001)     ;
(PID.TID 0000.0001) SEAICE_wetSnowAlb_south= /* Southern Ocean wetSnowAlb */
(PID.TID 0000.0001)                 7.000000000000000E-01
(PID.TID 0000.0001)     ;
(PID.TID 0000.0001) SEAICE_wetAlbTemp= /* Temp (o.C) threshold for wet-albedo */
(PID.TID 0000.0001)                -1.000000000000000E-03
(PID.TID 0000.0001)     ;
(PID.TID 0000.0001) SEAICE_snow_emiss = /* snow emissivity */
(PID.TID 0000.0001)                 9.500000000000000E-01
(PID.TID 0000.0001)     ;
(PID.TID 0000.0001) SEAICE_ice_emiss = /* seaice emissivity */
(PID.TID 0000.0001)                 9.500000000000000E-01
(PID.TID 0000.0001)     ;
(PID.TID 0000.0001) SEAICE_cpAir      = /* heat capacity of air */
(PID.TID 0000.0001)                 1.005000000000000E+03
(PID.TID 0000.0001)     ;
(PID.TID 0000.0001) SEAICE_dalton     = /* constant dalton number */
(PID.TID 0000.0001)                 1.750000000000000E-03
(PID.TID 0000.0001)     ;
(PID.TID 0000.0001) SEAICE_iceConduct = /* sea-ice conductivity */
(PID.TID 0000.0001)                 2.165600000000000E+00
(PID.TID 0000.0001)     ;
(PID.TID 0000.0001) SEAICE_snowConduct= /* snow conductivity */
(PID.TID 0000.0001)                 3.100000000000000E-01
(PID.TID 0000.0001)     ;
(PID.TID 0000.0001) SEAICE_snowThick  = /* cutoff snow thickness (for albedo) */
(PID.TID 0000.0001)                 1.500000000000000E-01
(PID.TID 0000.0001)     ;
(PID.TID 0000.0001) SEAICE_shortwave  = /* penetration shortwave radiation */
(PID.TID 0000.0001)                 3.000000000000000E-01
(PID.TID 0000.0001)     ;
(PID.TID 0000.0001) useMaykutSatVapPoly = /* use Maykut Polynomial for Sat.Vap.Pr */
(PID.TID 0000.0001)                   F
(PID.TID 0000.0001)     ;
(PID.TID 0000.0001) MIN_ATEMP         = /* minimum air temperature */
(PID.TID 0000.0001)                -4.000000000000000E+01
(PID.TID 0000.0001)     ;
(PID.TID 0000.0001) MIN_LWDOWN        = /* minimum downward longwave */
(PID.TID 0000.0001)                 6.000000000000000E+01
(PID.TID 0000.0001)     ;
(PID.TID 0000.0001) MIN_TICE          = /* minimum ice temperature */
(PID.TID 0000.0001)                -4.000000000000000E+01
(PID.TID 0000.0001)     ;
(PID.TID 0000.0001) 
(PID.TID 0000.0001)    Seaice initialization and IO config.,   > START <
(PID.TID 0000.0001)    -------------------------------------------------
(PID.TID 0000.0001) SEAICE_initialHEFF= /* initial sea-ice thickness */
(PID.TID 0000.0001)                 0.000000000000000E+00
(PID.TID 0000.0001)     ;
(PID.TID 0000.0001) AreaFile = /* Initial ice concentration File */
(PID.TID 0000.0001)               ''
(PID.TID 0000.0001)     ;
(PID.TID 0000.0001) HeffFile = /* Initial effective ice thickness File */
(PID.TID 0000.0001)               ''
(PID.TID 0000.0001)     ;
(PID.TID 0000.0001) HsnowFile = /* Initial snow thickness File */
(PID.TID 0000.0001)               ''
(PID.TID 0000.0001)     ;
(PID.TID 0000.0001) uIceFile = /* Initial U-ice velocity File */
(PID.TID 0000.0001)               ''
(PID.TID 0000.0001)     ;
(PID.TID 0000.0001) vIceFile = /* Initial V-ice velocity File */
(PID.TID 0000.0001)               ''
(PID.TID 0000.0001)     ;
(PID.TID 0000.0001) SEAICEwriteState  = /* write sea ice state to file */
(PID.TID 0000.0001)                   F
(PID.TID 0000.0001)     ;
(PID.TID 0000.0001) SEAICE_monFreq  = /* monitor frequency */
(PID.TID 0000.0001)                 1.000000000000000E+00
(PID.TID 0000.0001)     ;
(PID.TID 0000.0001) SEAICE_dumpFreq   = /* dump frequency */
(PID.TID 0000.0001)                 0.000000000000000E+00
(PID.TID 0000.0001)     ;
(PID.TID 0000.0001) SEAICE_taveFreq   = /* time-averaging frequency */
(PID.TID 0000.0001)                 0.000000000000000E+00
(PID.TID 0000.0001)     ;
(PID.TID 0000.0001) SEAICE_mon_stdio  = /* write monitor to std-outp */
(PID.TID 0000.0001)                   T
(PID.TID 0000.0001)     ;
(PID.TID 0000.0001) SEAICE_dump_mdsio = /* write snap-shot   using MDSIO */
(PID.TID 0000.0001)                   T
(PID.TID 0000.0001)     ;
(PID.TID 0000.0001) SEAICE_tave_mdsio = /* write TimeAverage using MDSIO */
(PID.TID 0000.0001)                   T
(PID.TID 0000.0001)     ;
(PID.TID 0000.0001) 
(PID.TID 0000.0001)    Seaice regularization numbers,   > START <
(PID.TID 0000.0001)    -----------------------------------------------
(PID.TID 0000.0001) SEAICE_deltaMin   = /* reduce singularities in Delta */
(PID.TID 0000.0001)                 1.000000000000000E-10
(PID.TID 0000.0001)     ;
(PID.TID 0000.0001) SEAICE_EPS        = /* small number */
(PID.TID 0000.0001)                 1.000000000000000E-10
(PID.TID 0000.0001)     ;
(PID.TID 0000.0001) SEAICE_EPS_SQ     = /* small number squared */
(PID.TID 0000.0001)                 1.000000000000000E-20
(PID.TID 0000.0001)     ;
(PID.TID 0000.0001) SEAICE_area_reg   = /* reduce derivative singularities */
(PID.TID 0000.0001)                 1.000000000000000E-05
(PID.TID 0000.0001)     ;
(PID.TID 0000.0001) SEAICE_hice_reg   = /* reduce derivative singularities */
(PID.TID 0000.0001)                 5.000000000000000E-02
(PID.TID 0000.0001)     ;
(PID.TID 0000.0001) SEAICE_area_floor = /* reduce derivative singularities */
(PID.TID 0000.0001)                 1.000000000000000E-05
(PID.TID 0000.0001)     ;
(PID.TID 0000.0001) 
(PID.TID 0000.0001) // =======================================================
(PID.TID 0000.0001) // Seaice configuration (SEAICE_PARM01) >>> END <<<
(PID.TID 0000.0001) // =======================================================
(PID.TID 0000.0001) 
(PID.TID 0000.0001) ctrl-wet 1:    nvarlength =         1028
(PID.TID 0000.0001) ctrl-wet 2: surface wet C =           13
(PID.TID 0000.0001) ctrl-wet 3: surface wet W =           13
(PID.TID 0000.0001) ctrl-wet 4: surface wet S =            6
(PID.TID 0000.0001) ctrl-wet 4a:surface wet V =            0
(PID.TID 0000.0001) ctrl-wet 5: 3D wet points =          282
(PID.TID 0000.0001) ctrl-wet 6: no recs for i =     1           0
(PID.TID 0000.0001) ctrl-wet 6: no recs for i =     2           0
(PID.TID 0000.0001) ctrl-wet 6: no recs for i =     3           0
(PID.TID 0000.0001) ctrl-wet 6: no recs for i =     4           0
(PID.TID 0000.0001) ctrl-wet 6: no recs for i =     5           0
(PID.TID 0000.0001) ctrl-wet 6: no recs for i =     6           0
(PID.TID 0000.0001) ctrl-wet 6: no recs for i =     7           0
(PID.TID 0000.0001) ctrl-wet 6: no recs for i =     8           0
(PID.TID 0000.0001) ctrl-wet 6: no recs for i =     9           0
(PID.TID 0000.0001) ctrl-wet 6: no recs for i =    10           0
(PID.TID 0000.0001) ctrl-wet 6: no recs for i =    11           0
(PID.TID 0000.0001) ctrl-wet 6: no recs for i =    12           0
(PID.TID 0000.0001) ctrl-wet 6: no recs for i =    13           0
(PID.TID 0000.0001) ctrl-wet 6: no recs for i =    14           0
(PID.TID 0000.0001) ctrl-wet 6: no recs for i =    15           0
(PID.TID 0000.0001) ctrl-wet 6: no recs for i =    16           0
(PID.TID 0000.0001) ctrl-wet 6: no recs for i =    17           0
(PID.TID 0000.0001) ctrl-wet 6: no recs for i =    18           0
(PID.TID 0000.0001) ctrl-wet 6: no recs for i =    19           0
(PID.TID 0000.0001) ctrl-wet 6: no recs for i =    20           0
(PID.TID 0000.0001) ctrl-wet 6: no recs for i =    21           0
(PID.TID 0000.0001) ctrl-wet 6: no recs for i =    22           0
(PID.TID 0000.0001) ctrl-wet 6: no recs for i =    23           0
(PID.TID 0000.0001) ctrl-wet 6: no recs for i =    24           0
(PID.TID 0000.0001) ctrl-wet 6: no recs for i =    25           0
(PID.TID 0000.0001) ctrl-wet 6: no recs for i =    26           0
(PID.TID 0000.0001) ctrl-wet 6: no recs for i =    27           0
(PID.TID 0000.0001) ctrl-wet 6: no recs for i =    28           0
(PID.TID 0000.0001) ctrl-wet 6: no recs for i =    29           0
(PID.TID 0000.0001) ctrl-wet 6: no recs for i =    30           0
(PID.TID 0000.0001) ctrl-wet 6: no recs for i =    31           0
(PID.TID 0000.0001) ctrl-wet 6: no recs for i =    32           0
(PID.TID 0000.0001) ctrl-wet 6: no recs for i =    33           0
(PID.TID 0000.0001) ctrl-wet 6: no recs for i =    34           0
(PID.TID 0000.0001) ctrl-wet 6: no recs for i =    35           0
(PID.TID 0000.0001) ctrl-wet 6: no recs for i =    36           0
(PID.TID 0000.0001) ctrl-wet 6: no recs for i =    37           0
(PID.TID 0000.0001) ctrl-wet 6: no recs for i =    38           0
(PID.TID 0000.0001) ctrl-wet 6: no recs for i =    39           0
(PID.TID 0000.0001) ctrl-wet 6: no recs for i =    40           0
(PID.TID 0000.0001) ctrl-wet 6: no recs for i =    41           0
(PID.TID 0000.0001) ctrl-wet 6: no recs for i =    42           0
(PID.TID 0000.0001) ctrl-wet 6: no recs for i =    43           0
(PID.TID 0000.0001) ctrl-wet 6: no recs for i =    44           0
(PID.TID 0000.0001) ctrl-wet 6: no recs for i =    45           0
(PID.TID 0000.0001) ctrl-wet 6: no recs for i =    46           0
(PID.TID 0000.0001) ctrl-wet 6: no recs for i =    47           0
(PID.TID 0000.0001) ctrl-wet 6: no recs for i =    48           0
(PID.TID 0000.0001) ctrl-wet 6: no recs for i =    49           0
(PID.TID 0000.0001) ctrl-wet 6: no recs for i =    50           0
(PID.TID 0000.0001) ctrl-wet 6: no recs for i =    51           0
(PID.TID 0000.0001) ctrl-wet 6: no recs for i =    52           0
(PID.TID 0000.0001) ctrl-wet 6: no recs for i =    53           0
(PID.TID 0000.0001) ctrl-wet 6: no recs for i =    54           0
(PID.TID 0000.0001) ctrl-wet 6: no recs for i =    55           0
(PID.TID 0000.0001) ctrl-wet 6: no recs for i =    56           0
(PID.TID 0000.0001) ctrl-wet 6: no recs for i =    57           0
(PID.TID 0000.0001) ctrl-wet 6: no recs for i =    58           0
(PID.TID 0000.0001) ctrl-wet 6: no recs for i =    59           0
(PID.TID 0000.0001) ctrl-wet 6: no recs for i =    60           0
(PID.TID 0000.0001) ctrl-wet 6: no recs for i =    61           0
(PID.TID 0000.0001) ctrl-wet 6: no recs for i =    62           0
(PID.TID 0000.0001) ctrl-wet 6: no recs for i =    63           0
(PID.TID 0000.0001) ctrl-wet 6: no recs for i =    64           0
(PID.TID 0000.0001) ctrl-wet 6: no recs for i =    65           0
(PID.TID 0000.0001) ctrl-wet 6: no recs for i =    66           0
(PID.TID 0000.0001) ctrl-wet 6: no recs for i =    67           0
(PID.TID 0000.0001) ctrl-wet 6: no recs for i =    68           0
(PID.TID 0000.0001) ctrl-wet 6: no recs for i =    69           0
(PID.TID 0000.0001) ctrl-wet 6: no recs for i =    70           0
(PID.TID 0000.0001) ctrl-wet 6: no recs for i =    71           0
(PID.TID 0000.0001) ctrl-wet 6: no recs for i =    72           0
(PID.TID 0000.0001) ctrl-wet 6: no recs for i =    73           0
(PID.TID 0000.0001) ctrl-wet 6: no recs for i =    74           0
(PID.TID 0000.0001) ctrl-wet 6: no recs for i =    75           0
(PID.TID 0000.0001) ctrl-wet 6: no recs for i =    76           0
(PID.TID 0000.0001) ctrl-wet 6: no recs for i =    77           0
(PID.TID 0000.0001) ctrl-wet 6: no recs for i =    78           0
(PID.TID 0000.0001) ctrl-wet 6: no recs for i =    79           0
(PID.TID 0000.0001) ctrl-wet 6: no recs for i =    80           0
(PID.TID 0000.0001) ctrl-wet 6: no recs for i =    81           0
(PID.TID 0000.0001) ctrl-wet 6: no recs for i =    82           0
(PID.TID 0000.0001) ctrl-wet 6: no recs for i =    83           0
(PID.TID 0000.0001) ctrl-wet 6: no recs for i =    84           0
(PID.TID 0000.0001) ctrl-wet 6: no recs for i =    85           0
(PID.TID 0000.0001) ctrl-wet 6: no recs for i =    86           0
(PID.TID 0000.0001) ctrl-wet 6: no recs for i =    87           0
(PID.TID 0000.0001) ctrl-wet 6: no recs for i =    88           0
(PID.TID 0000.0001) ctrl-wet 6: no recs for i =    89           0
(PID.TID 0000.0001) ctrl-wet 6: no recs for i =    90           0
(PID.TID 0000.0001) ctrl-wet 6: no recs for i =    91           0
(PID.TID 0000.0001) ctrl-wet 6: no recs for i =    92           0
(PID.TID 0000.0001) ctrl-wet 6: no recs for i =    93           0
(PID.TID 0000.0001) ctrl-wet 6: no recs for i =    94           0
(PID.TID 0000.0001) ctrl-wet 6: no recs for i =    95           0
(PID.TID 0000.0001) ctrl-wet 6: no recs for i =    96           0
(PID.TID 0000.0001) ctrl-wet 6: no recs for i =    97           0
(PID.TID 0000.0001) ctrl-wet 6: no recs for i =    98           0
(PID.TID 0000.0001) ctrl-wet 6: no recs for i =    99           0
(PID.TID 0000.0001) ctrl-wet 6: no recs for i =   100           0
(PID.TID 0000.0001) ctrl-wet 6: no recs for i =   101           0
(PID.TID 0000.0001) ctrl-wet 6: no recs for i =   102           0
(PID.TID 0000.0001) ctrl-wet 6: no recs for i =   103           0
(PID.TID 0000.0001) ctrl-wet 6: no recs for i =   104           0
(PID.TID 0000.0001) ctrl-wet 6: no recs for i =   105           0
(PID.TID 0000.0001) ctrl-wet 6: no recs for i =   106           0
(PID.TID 0000.0001) ctrl-wet 6: no recs for i =   107           0
(PID.TID 0000.0001) ctrl-wet 6: no recs for i =   108           0
(PID.TID 0000.0001) ctrl-wet 6: no recs for i =   109           0
(PID.TID 0000.0001) ctrl-wet 6: no recs for i =   110           0
(PID.TID 0000.0001) ctrl-wet 6: no recs for i =   111           0
(PID.TID 0000.0001) ctrl-wet 6: no recs for i =   112           0
(PID.TID 0000.0001) ctrl-wet 6: no recs for i =   113           0
(PID.TID 0000.0001) ctrl-wet 6: no recs for i =   114           0
(PID.TID 0000.0001) ctrl-wet 6: no recs for i =   115           0
(PID.TID 0000.0001) ctrl-wet 6: no recs for i =   116           0
(PID.TID 0000.0001) ctrl-wet 6: no recs for i =   117           0
(PID.TID 0000.0001) ctrl-wet 6: no recs for i =   118           0
(PID.TID 0000.0001) ctrl-wet 6: no recs for i =   119           0
(PID.TID 0000.0001) ctrl-wet 6: no recs for i =   120           0
(PID.TID 0000.0001) ctrl-wet 6: no recs for i =   121           0
(PID.TID 0000.0001) ctrl-wet 6: no recs for i =   122           0
(PID.TID 0000.0001) ctrl-wet 6: no recs for i =   123           0
(PID.TID 0000.0001) ctrl-wet 6: no recs for i =   124           0
(PID.TID 0000.0001) ctrl-wet 6: no recs for i =   125           0
(PID.TID 0000.0001) ctrl-wet 6: no recs for i =   126           0
(PID.TID 0000.0001) ctrl-wet 6: no recs for i =   127           0
(PID.TID 0000.0001) ctrl-wet 6: no recs for i =   128           0
(PID.TID 0000.0001) ctrl-wet 6: no recs for i =   129           0
(PID.TID 0000.0001) ctrl-wet 6: no recs for i =   130           0
(PID.TID 0000.0001) ctrl-wet 6: no recs for i =   131           0
(PID.TID 0000.0001) ctrl-wet 6: no recs for i =   132           0
(PID.TID 0000.0001) ctrl-wet 6: no recs for i =   133           0
(PID.TID 0000.0001) ctrl-wet 6: no recs for i =   134           0
(PID.TID 0000.0001) ctrl-wet 6: no recs for i =   135           0
(PID.TID 0000.0001) ctrl-wet 6: no recs for i =   136           0
(PID.TID 0000.0001) ctrl-wet 6: no recs for i =   137           0
(PID.TID 0000.0001) ctrl-wet 6: no recs for i =   138           0
(PID.TID 0000.0001) ctrl-wet 6: no recs for i =   139           0
(PID.TID 0000.0001) ctrl-wet 6: no recs for i =   140           0
(PID.TID 0000.0001) ctrl-wet 6: no recs for i =   141           0
(PID.TID 0000.0001) ctrl-wet 6: no recs for i =   142           0
(PID.TID 0000.0001) ctrl-wet 6: no recs for i =   143           0
(PID.TID 0000.0001) ctrl-wet 6: no recs for i =   144           0
(PID.TID 0000.0001) ctrl-wet 6: no recs for i =   145           0
(PID.TID 0000.0001) ctrl-wet 6: no recs for i =   146           0
(PID.TID 0000.0001) ctrl-wet 6: no recs for i =   147           0
(PID.TID 0000.0001) ctrl-wet 6: no recs for i =   148           0
(PID.TID 0000.0001) ctrl-wet 6: no recs for i =   149           0
(PID.TID 0000.0001) ctrl-wet 6: no recs for i =   150           0
(PID.TID 0000.0001) ctrl-wet 6: no recs for i =   151           0
(PID.TID 0000.0001) ctrl-wet 6: no recs for i =   152           0
(PID.TID 0000.0001) ctrl-wet 6: no recs for i =   153           0
(PID.TID 0000.0001) ctrl-wet 6: no recs for i =   154           0
(PID.TID 0000.0001) ctrl-wet 6: no recs for i =   155           0
(PID.TID 0000.0001) ctrl-wet 6: no recs for i =   156           0
(PID.TID 0000.0001) ctrl-wet 6: no recs for i =   157           0
(PID.TID 0000.0001) ctrl-wet 6: no recs for i =   158           0
(PID.TID 0000.0001) ctrl-wet 6: no recs for i =   159           0
(PID.TID 0000.0001) ctrl-wet 6: no recs for i =   160           0
(PID.TID 0000.0001) ctrl-wet 6: no recs for i =   161           0
(PID.TID 0000.0001) ctrl-wet 6: no recs for i =   162           0
(PID.TID 0000.0001) ctrl-wet 6: no recs for i =   163           0
(PID.TID 0000.0001) ctrl-wet 6: no recs for i =   164           0
(PID.TID 0000.0001) ctrl-wet 6: no recs for i =   165           0
(PID.TID 0000.0001) ctrl-wet 6: no recs for i =   166           0
(PID.TID 0000.0001) ctrl-wet 6: no recs for i =   167           0
(PID.TID 0000.0001) ctrl-wet 6: no recs for i =   168           0
(PID.TID 0000.0001) ctrl-wet 6: no recs for i =   169           0
(PID.TID 0000.0001) ctrl-wet 6: no recs for i =   170           0
(PID.TID 0000.0001) ctrl-wet 6: no recs for i =   171           0
(PID.TID 0000.0001) ctrl-wet 6: no recs for i =   172           0
(PID.TID 0000.0001) ctrl-wet 6: no recs for i =   173           0
(PID.TID 0000.0001) ctrl-wet 6: no recs for i =   174           0
(PID.TID 0000.0001) ctrl-wet 6: no recs for i =   175           0
(PID.TID 0000.0001) ctrl-wet 6: no recs for i =   176           0
(PID.TID 0000.0001) ctrl-wet 6: no recs for i =   177           0
(PID.TID 0000.0001) ctrl-wet 6: no recs for i =   178           0
(PID.TID 0000.0001) ctrl-wet 6: no recs for i =   179           0
(PID.TID 0000.0001) ctrl-wet 6: no recs for i =   180           0
(PID.TID 0000.0001) ctrl-wet 6: no recs for i =   181           0
(PID.TID 0000.0001) ctrl-wet 6: no recs for i =   182           0
(PID.TID 0000.0001) ctrl-wet 6: no recs for i =   183           0
(PID.TID 0000.0001) ctrl-wet 6: no recs for i =   184           0
(PID.TID 0000.0001) ctrl-wet 6: no recs for i =   185           0
(PID.TID 0000.0001) ctrl-wet 6: no recs for i =   186           0
(PID.TID 0000.0001) ctrl-wet 6: no recs for i =   187           0
(PID.TID 0000.0001) ctrl-wet 6: no recs for i =   188           0
(PID.TID 0000.0001) ctrl-wet 6: no recs for i =   189           0
(PID.TID 0000.0001) ctrl-wet 6: no recs for i =   190           0
(PID.TID 0000.0001) ctrl-wet 6: no recs for i =   191           0
(PID.TID 0000.0001) ctrl-wet 6: no recs for i =   192           0
(PID.TID 0000.0001) ctrl-wet 6: no recs for i =   193           0
(PID.TID 0000.0001) ctrl-wet 6: no recs for i =   194           0
(PID.TID 0000.0001) ctrl-wet 6: no recs for i =   195           0
(PID.TID 0000.0001) ctrl-wet 6: no recs for i =   196           0
(PID.TID 0000.0001) ctrl-wet 6: no recs for i =   197           0
(PID.TID 0000.0001) ctrl-wet 6: no recs for i =   198           0
(PID.TID 0000.0001) ctrl-wet 6: no recs for i =   199           0
(PID.TID 0000.0001) ctrl-wet 6: no recs for i =   200           0
(PID.TID 0000.0001) ctrl-wet 6: no recs for i =   201           1
(PID.TID 0000.0001) ctrl-wet 6: no recs for i =   202           1
(PID.TID 0000.0001) ctrl-wet 6: no recs for i =   203           1
(PID.TID 0000.0001) ctrl-wet 6: no recs for i =   204           0
(PID.TID 0000.0001) ctrl-wet 6: no recs for i =   205           0
(PID.TID 0000.0001) ctrl-wet 6: no recs for i =   206           0
(PID.TID 0000.0001) ctrl-wet 6: no recs for i =   207           0
(PID.TID 0000.0001) ctrl-wet 6: no recs for i =   208           0
(PID.TID 0000.0001) ctrl-wet 6: no recs for i =   209           0
(PID.TID 0000.0001) ctrl-wet 6: no recs for i =   210           0
(PID.TID 0000.0001) ctrl-wet 6: no recs for i =   211           0
(PID.TID 0000.0001) ctrl-wet 6: no recs for i =   212           0
(PID.TID 0000.0001) ctrl-wet 6: no recs for i =   213           0
(PID.TID 0000.0001) ctrl-wet 6: no recs for i =   214           0
(PID.TID 0000.0001) ctrl-wet 6: no recs for i =   215           0
(PID.TID 0000.0001) ctrl-wet 6: no recs for i =   216           0
(PID.TID 0000.0001) ctrl-wet 6: no recs for i =   217           0
(PID.TID 0000.0001) ctrl-wet 6: no recs for i =   218           0
(PID.TID 0000.0001) ctrl-wet 6: no recs for i =   219           0
(PID.TID 0000.0001) ctrl-wet 6: no recs for i =   220           0
(PID.TID 0000.0001) ctrl-wet 6: no recs for i =   221           0
(PID.TID 0000.0001) ctrl-wet 6: no recs for i =   222           0
(PID.TID 0000.0001) ctrl-wet 6: no recs for i =   223           0
(PID.TID 0000.0001) ctrl-wet 6: no recs for i =   224           0
(PID.TID 0000.0001) ctrl-wet 6: no recs for i =   225           0
(PID.TID 0000.0001) ctrl-wet 6: no recs for i =   226           0
(PID.TID 0000.0001) ctrl-wet 6: no recs for i =   227           0
(PID.TID 0000.0001) ctrl-wet 6: no recs for i =   228           0
(PID.TID 0000.0001) ctrl-wet 6: no recs for i =   229           0
(PID.TID 0000.0001) ctrl-wet 6: no recs for i =   230           0
(PID.TID 0000.0001) ctrl-wet 6: no recs for i =   231           0
(PID.TID 0000.0001) ctrl-wet 6: no recs for i =   232           0
(PID.TID 0000.0001) ctrl-wet 6: no recs for i =   233           0
(PID.TID 0000.0001) ctrl-wet 6: no recs for i =   234           0
(PID.TID 0000.0001) ctrl-wet 6: no recs for i =   235           0
(PID.TID 0000.0001) ctrl-wet 6: no recs for i =   236           0
(PID.TID 0000.0001) ctrl-wet 6: no recs for i =   237           0
(PID.TID 0000.0001) ctrl-wet 6: no recs for i =   238           0
(PID.TID 0000.0001) ctrl-wet 6: no recs for i =   239           0
(PID.TID 0000.0001) ctrl-wet 6: no recs for i =   240           0
(PID.TID 0000.0001) ctrl-wet 6: no recs for i =   241           0
(PID.TID 0000.0001) ctrl-wet 6: no recs for i =   242           0
(PID.TID 0000.0001) ctrl-wet 6: no recs for i =   243           0
(PID.TID 0000.0001) ctrl-wet 6: no recs for i =   244           0
(PID.TID 0000.0001) ctrl-wet 6: no recs for i =   245           0
(PID.TID 0000.0001) ctrl-wet 6: no recs for i =   246           0
(PID.TID 0000.0001) ctrl-wet 6: no recs for i =   247           0
(PID.TID 0000.0001) ctrl-wet 6: no recs for i =   248           0
(PID.TID 0000.0001) ctrl-wet 6: no recs for i =   249           0
(PID.TID 0000.0001) ctrl-wet 6: no recs for i =   250           0
(PID.TID 0000.0001) ctrl-wet 6: no recs for i =   251           0
(PID.TID 0000.0001) ctrl-wet 6: no recs for i =   252           0
(PID.TID 0000.0001) ctrl-wet 6: no recs for i =   253           0
(PID.TID 0000.0001) ctrl-wet 6: no recs for i =   254           0
(PID.TID 0000.0001) ctrl-wet 6: no recs for i =   255           0
(PID.TID 0000.0001) ctrl-wet 6: no recs for i =   256           0
(PID.TID 0000.0001) ctrl-wet 6: no recs for i =   257           0
(PID.TID 0000.0001) ctrl-wet 6: no recs for i =   258           0
(PID.TID 0000.0001) ctrl-wet 6: no recs for i =   259           0
(PID.TID 0000.0001) ctrl-wet 6: no recs for i =   260           0
(PID.TID 0000.0001) ctrl-wet 6: no recs for i =   261           0
(PID.TID 0000.0001) ctrl-wet 6: no recs for i =   262           0
(PID.TID 0000.0001) ctrl-wet 6: no recs for i =   263           0
(PID.TID 0000.0001) ctrl-wet 6: no recs for i =   264           0
(PID.TID 0000.0001) ctrl-wet 6: no recs for i =   265           0
(PID.TID 0000.0001) ctrl-wet 6: no recs for i =   266           0
(PID.TID 0000.0001) ctrl-wet 6: no recs for i =   267           0
(PID.TID 0000.0001) ctrl-wet 6: no recs for i =   268           0
(PID.TID 0000.0001) ctrl-wet 6: no recs for i =   269           0
(PID.TID 0000.0001) ctrl-wet 6: no recs for i =   270           0
(PID.TID 0000.0001) ctrl-wet 6: no recs for i =   271           0
(PID.TID 0000.0001) ctrl-wet 6: no recs for i =   272           0
(PID.TID 0000.0001) ctrl-wet 6: no recs for i =   273           0
(PID.TID 0000.0001) ctrl-wet 6: no recs for i =   274           0
(PID.TID 0000.0001) ctrl-wet 6: no recs for i =   275           0
(PID.TID 0000.0001) ctrl-wet 6: no recs for i =   276           0
(PID.TID 0000.0001) ctrl-wet 6: no recs for i =   277           0
(PID.TID 0000.0001) ctrl-wet 6: no recs for i =   278           0
(PID.TID 0000.0001) ctrl-wet 6: no recs for i =   279           0
(PID.TID 0000.0001) ctrl-wet 6: no recs for i =   280           0
(PID.TID 0000.0001) ctrl-wet 6: no recs for i =   281           0
(PID.TID 0000.0001) ctrl-wet 6: no recs for i =   282           0
(PID.TID 0000.0001) ctrl-wet 6: no recs for i =   283           0
(PID.TID 0000.0001) ctrl-wet 6: no recs for i =   284           0
(PID.TID 0000.0001) ctrl-wet 6: no recs for i =   285           0
(PID.TID 0000.0001) ctrl-wet 6: no recs for i =   286           0
(PID.TID 0000.0001) ctrl-wet 6: no recs for i =   287           0
(PID.TID 0000.0001) ctrl-wet 6: no recs for i =   288           0
(PID.TID 0000.0001) ctrl-wet 6: no recs for i =   289           0
(PID.TID 0000.0001) ctrl-wet 6: no recs for i =   290           0
(PID.TID 0000.0001) ctrl-wet 6: no recs for i =   291           0
(PID.TID 0000.0001) ctrl-wet 6: no recs for i =   292           0
(PID.TID 0000.0001) ctrl-wet 6: no recs for i =   293           0
(PID.TID 0000.0001) ctrl-wet 6: no recs for i =   294           0
(PID.TID 0000.0001) ctrl-wet 6: no recs for i =   295           0
(PID.TID 0000.0001) ctrl-wet 6: no recs for i =   296           0
(PID.TID 0000.0001) ctrl-wet 6: no recs for i =   297           0
(PID.TID 0000.0001) ctrl-wet 6: no recs for i =   298           0
(PID.TID 0000.0001) ctrl-wet 6: no recs for i =   299           0
(PID.TID 0000.0001) ctrl-wet 6: no recs for i =   300           0
(PID.TID 0000.0001) ctrl-wet 6: no recs for i =   301           2
(PID.TID 0000.0001) ctrl-wet 6: no recs for i =   302           2
(PID.TID 0000.0001) ctrl-wet 6: no recs for i =   303           2
(PID.TID 0000.0001) ctrl-wet 6: no recs for i =   304           2
(PID.TID 0000.0001) ctrl-wet 6: no recs for i =   305           2
(PID.TID 0000.0001) ctrl-wet 6: no recs for i =   306           2
(PID.TID 0000.0001) ctrl-wet 6: no recs for i =   307           2
(PID.TID 0000.0001) ctrl-wet 6: no recs for i =   308           0
(PID.TID 0000.0001) ctrl-wet 6: no recs for i =   309           0
(PID.TID 0000.0001) ctrl-wet 6: no recs for i =   310           0
(PID.TID 0000.0001) ctrl-wet 6: no recs for i =   311           0
(PID.TID 0000.0001) ctrl-wet 6: no recs for i =   312           0
(PID.TID 0000.0001) ctrl-wet 6: no recs for i =   313           0
(PID.TID 0000.0001) ctrl-wet 6: no recs for i =   314           0
(PID.TID 0000.0001) ctrl-wet 6: no recs for i =   315           0
(PID.TID 0000.0001) ctrl-wet 6: no recs for i =   316           0
(PID.TID 0000.0001) ctrl-wet 6: no recs for i =   317           0
(PID.TID 0000.0001) ctrl-wet 6: no recs for i =   318           0
(PID.TID 0000.0001) ctrl-wet 6: no recs for i =   319           0
(PID.TID 0000.0001) ctrl-wet 6: no recs for i =   320           0
(PID.TID 0000.0001) ctrl-wet 6: no recs for i =   321           0
(PID.TID 0000.0001) ctrl-wet 6: no recs for i =   322           0
(PID.TID 0000.0001) ctrl-wet 6: no recs for i =   323           0
(PID.TID 0000.0001) ctrl-wet 6: no recs for i =   324           0
(PID.TID 0000.0001) ctrl-wet 6: no recs for i =   325           0
(PID.TID 0000.0001) ctrl-wet 6: no recs for i =   326           0
(PID.TID 0000.0001) ctrl-wet 6: no recs for i =   327           0
(PID.TID 0000.0001) ctrl-wet 6: no recs for i =   328           0
(PID.TID 0000.0001) ctrl-wet 6: no recs for i =   329           0
(PID.TID 0000.0001) ctrl-wet 6: no recs for i =   330           0
(PID.TID 0000.0001) ctrl-wet 6: no recs for i =   331           0
(PID.TID 0000.0001) ctrl-wet 6: no recs for i =   332           0
(PID.TID 0000.0001) ctrl-wet 6: no recs for i =   333           0
(PID.TID 0000.0001) ctrl-wet 6: no recs for i =   334           0
(PID.TID 0000.0001) ctrl-wet 6: no recs for i =   335           0
(PID.TID 0000.0001) ctrl-wet 6: no recs for i =   336           0
(PID.TID 0000.0001) ctrl-wet 6: no recs for i =   337           0
(PID.TID 0000.0001) ctrl-wet 6: no recs for i =   338           0
(PID.TID 0000.0001) ctrl-wet 6: no recs for i =   339           0
(PID.TID 0000.0001) ctrl-wet 6: no recs for i =   340           0
(PID.TID 0000.0001) ctrl-wet 6: no recs for i =   341           0
(PID.TID 0000.0001) ctrl-wet 6: no recs for i =   342           0
(PID.TID 0000.0001) ctrl-wet 6: no recs for i =   343           0
(PID.TID 0000.0001) ctrl-wet 6: no recs for i =   344           0
(PID.TID 0000.0001) ctrl-wet 6: no recs for i =   345           0
(PID.TID 0000.0001) ctrl-wet 6: no recs for i =   346           0
(PID.TID 0000.0001) ctrl-wet 6: no recs for i =   347           0
(PID.TID 0000.0001) ctrl-wet 6: no recs for i =   348           0
(PID.TID 0000.0001) ctrl-wet 6: no recs for i =   349           0
(PID.TID 0000.0001) ctrl-wet 6: no recs for i =   350           0
(PID.TID 0000.0001) ctrl-wet 6: no recs for i =   351           0
(PID.TID 0000.0001) ctrl-wet 6: no recs for i =   352           0
(PID.TID 0000.0001) ctrl-wet 6: no recs for i =   353           0
(PID.TID 0000.0001) ctrl-wet 6: no recs for i =   354           0
(PID.TID 0000.0001) ctrl-wet 6: no recs for i =   355           0
(PID.TID 0000.0001) ctrl-wet 6: no recs for i =   356           0
(PID.TID 0000.0001) ctrl-wet 6: no recs for i =   357           0
(PID.TID 0000.0001) ctrl-wet 6: no recs for i =   358           0
(PID.TID 0000.0001) ctrl-wet 6: no recs for i =   359           0
(PID.TID 0000.0001) ctrl-wet 6: no recs for i =   360           0
(PID.TID 0000.0001) ctrl-wet 6: no recs for i =   361           0
(PID.TID 0000.0001) ctrl-wet 6: no recs for i =   362           0
(PID.TID 0000.0001) ctrl-wet 6: no recs for i =   363           0
(PID.TID 0000.0001) ctrl-wet 6: no recs for i =   364           0
(PID.TID 0000.0001) ctrl-wet 6: no recs for i =   365           0
(PID.TID 0000.0001) ctrl-wet 6: no recs for i =   366           0
(PID.TID 0000.0001) ctrl-wet 6: no recs for i =   367           0
(PID.TID 0000.0001) ctrl-wet 6: no recs for i =   368           0
(PID.TID 0000.0001) ctrl-wet 6: no recs for i =   369           0
(PID.TID 0000.0001) ctrl-wet 6: no recs for i =   370           0
(PID.TID 0000.0001) ctrl-wet 6: no recs for i =   371           0
(PID.TID 0000.0001) ctrl-wet 6: no recs for i =   372           0
(PID.TID 0000.0001) ctrl-wet 6: no recs for i =   373           0
(PID.TID 0000.0001) ctrl-wet 6: no recs for i =   374           0
(PID.TID 0000.0001) ctrl-wet 6: no recs for i =   375           0
(PID.TID 0000.0001) ctrl-wet 6: no recs for i =   376           0
(PID.TID 0000.0001) ctrl-wet 6: no recs for i =   377           0
(PID.TID 0000.0001) ctrl-wet 6: no recs for i =   378           0
(PID.TID 0000.0001) ctrl-wet 6: no recs for i =   379           0
(PID.TID 0000.0001) ctrl-wet 6: no recs for i =   380           0
(PID.TID 0000.0001) ctrl-wet 6: no recs for i =   381           0
(PID.TID 0000.0001) ctrl-wet 6: no recs for i =   382           0
(PID.TID 0000.0001) ctrl-wet 6: no recs for i =   383           0
(PID.TID 0000.0001) ctrl-wet 6: no recs for i =   384           0
(PID.TID 0000.0001) ctrl-wet 6: no recs for i =   385           0
(PID.TID 0000.0001) ctrl-wet 6: no recs for i =   386           0
(PID.TID 0000.0001) ctrl-wet 6: no recs for i =   387           0
(PID.TID 0000.0001) ctrl-wet 6: no recs for i =   388           0
(PID.TID 0000.0001) ctrl-wet 6: no recs for i =   389           0
(PID.TID 0000.0001) ctrl-wet 6: no recs for i =   390           0
(PID.TID 0000.0001) ctrl-wet 6: no recs for i =   391           0
(PID.TID 0000.0001) ctrl-wet 6: no recs for i =   392           0
(PID.TID 0000.0001) ctrl-wet 6: no recs for i =   393           0
(PID.TID 0000.0001) ctrl-wet 6: no recs for i =   394           0
(PID.TID 0000.0001) ctrl-wet 6: no recs for i =   395           0
(PID.TID 0000.0001) ctrl-wet 6: no recs for i =   396           0
(PID.TID 0000.0001) ctrl-wet 6: no recs for i =   397           0
(PID.TID 0000.0001) ctrl-wet 6: no recs for i =   398           0
(PID.TID 0000.0001) ctrl-wet 6: no recs for i =   399           0
(PID.TID 0000.0001) ctrl-wet 6: no recs for i =   400           0
(PID.TID 0000.0001) ctrl-wet 7: flux           564
(PID.TID 0000.0001) ctrl-wet 8: atmos          564
(PID.TID 0000.0001) ctrl-wet -------------------------------------------------
(PID.TID 0000.0001) ctrl-wet 13: global nvarlength for Nr =   50    72172507
(PID.TID 0000.0001) ctrl-wet -------------------------------------------------
(PID.TID 0000.0001) ctrl-wet 14: global nWet C/S/W/V k=    1      546695      541042      541676           0
(PID.TID 0000.0001) ctrl-wet 14: global nWet C/S/W/V k=    2      544602      538938      539579           0
(PID.TID 0000.0001) ctrl-wet 14: global nWet C/S/W/V k=    3      536992      531446      532069           0
(PID.TID 0000.0001) ctrl-wet 14: global nWet C/S/W/V k=    4      532900      527347      527925           0
(PID.TID 0000.0001) ctrl-wet 14: global nWet C/S/W/V k=    5      528533      522923      523552           0
(PID.TID 0000.0001) ctrl-wet 14: global nWet C/S/W/V k=    6      523525      518028      518609           0
(PID.TID 0000.0001) ctrl-wet 14: global nWet C/S/W/V k=    7      520090      514699      515304           0
(PID.TID 0000.0001) ctrl-wet 14: global nWet C/S/W/V k=    8      517422      512049      512634           0
(PID.TID 0000.0001) ctrl-wet 14: global nWet C/S/W/V k=    9      515081      509703      510280           0
(PID.TID 0000.0001) ctrl-wet 14: global nWet C/S/W/V k=   10      512775      507369      507946           0
(PID.TID 0000.0001) ctrl-wet 14: global nWet C/S/W/V k=   11      509753      504374      504942           0
(PID.TID 0000.0001) ctrl-wet 14: global nWet C/S/W/V k=   12      507727      502408      502937           0
(PID.TID 0000.0001) ctrl-wet 14: global nWet C/S/W/V k=   13      505942      500672      501196           0
(PID.TID 0000.0001) ctrl-wet 14: global nWet C/S/W/V k=   14      504147      498875      499434           0
(PID.TID 0000.0001) ctrl-wet 14: global nWet C/S/W/V k=   15      501823      496536      497093           0
(PID.TID 0000.0001) ctrl-wet 14: global nWet C/S/W/V k=   16      499349      494072      494594           0
(PID.TID 0000.0001) ctrl-wet 14: global nWet C/S/W/V k=   17      496071      490723      491265           0
(PID.TID 0000.0001) ctrl-wet 14: global nWet C/S/W/V k=   18      492211      486907      487404           0
(PID.TID 0000.0001) ctrl-wet 14: global nWet C/S/W/V k=   19      488620      483333      483825           0
(PID.TID 0000.0001) ctrl-wet 14: global nWet C/S/W/V k=   20      484340      479176      479610           0
(PID.TID 0000.0001) ctrl-wet 14: global nWet C/S/W/V k=   21      479877      474854      475289           0
(PID.TID 0000.0001) ctrl-wet 14: global nWet C/S/W/V k=   22      474828      469736      470174           0
(PID.TID 0000.0001) ctrl-wet 14: global nWet C/S/W/V k=   23      470311      465315      465797           0
(PID.TID 0000.0001) ctrl-wet 14: global nWet C/S/W/V k=   24      465435      460572      461105           0
(PID.TID 0000.0001) ctrl-wet 14: global nWet C/S/W/V k=   25      461128      456471      457021           0
(PID.TID 0000.0001) ctrl-wet 14: global nWet C/S/W/V k=   26      458427      453893      454408           0
(PID.TID 0000.0001) ctrl-wet 14: global nWet C/S/W/V k=   27      456171      451650      452160           0
(PID.TID 0000.0001) ctrl-wet 14: global nWet C/S/W/V k=   28      453882      449349      449869           0
(PID.TID 0000.0001) ctrl-wet 14: global nWet C/S/W/V k=   29      451863      447274      447778           0
(PID.TID 0000.0001) ctrl-wet 14: global nWet C/S/W/V k=   30      449603      444899      445395           0
(PID.TID 0000.0001) ctrl-wet 14: global nWet C/S/W/V k=   31      447191      442355      442895           0
(PID.TID 0000.0001) ctrl-wet 14: global nWet C/S/W/V k=   32      444712      439728      440299           0
(PID.TID 0000.0001) ctrl-wet 14: global nWet C/S/W/V k=   33      442220      437135      437683           0
(PID.TID 0000.0001) ctrl-wet 14: global nWet C/S/W/V k=   34      439342      434118      434595           0
(PID.TID 0000.0001) ctrl-wet 14: global nWet C/S/W/V k=   35      436359      431032      431490           0
(PID.TID 0000.0001) ctrl-wet 14: global nWet C/S/W/V k=   36      432758      427307      427678           0
(PID.TID 0000.0001) ctrl-wet 14: global nWet C/S/W/V k=   37      428534      422872      423242           0
(PID.TID 0000.0001) ctrl-wet 14: global nWet C/S/W/V k=   38      423432      417503      417905           0
(PID.TID 0000.0001) ctrl-wet 14: global nWet C/S/W/V k=   39      416760      410502      410826           0
(PID.TID 0000.0001) ctrl-wet 14: global nWet C/S/W/V k=   40      408369      401649      401822           0
(PID.TID 0000.0001) ctrl-wet 14: global nWet C/S/W/V k=   41      397067      389479      389697           0
(PID.TID 0000.0001) ctrl-wet 14: global nWet C/S/W/V k=   42      380191      371487      371719           0
(PID.TID 0000.0001) ctrl-wet 14: global nWet C/S/W/V k=   43      357783      348142      348267           0
(PID.TID 0000.0001) ctrl-wet 14: global nWet C/S/W/V k=   44      325462      315166      315036           0
(PID.TID 0000.0001) ctrl-wet 14: global nWet C/S/W/V k=   45      280919      270171      270071           0
(PID.TID 0000.0001) ctrl-wet 14: global nWet C/S/W/V k=   46      228481      217924      217842           0
(PID.TID 0000.0001) ctrl-wet 14: global nWet C/S/W/V k=   47      165477      155748      155741           0
(PID.TID 0000.0001) ctrl-wet 14: global nWet C/S/W/V k=   48      105281       96907       96837           0
(PID.TID 0000.0001) ctrl-wet 14: global nWet C/S/W/V k=   49       44932       39028       38976           0
(PID.TID 0000.0001) ctrl-wet 14: global nWet C/S/W/V k=   50       10866        8584        8601           0
(PID.TID 0000.0001) ctrl-wet -------------------------------------------------
(PID.TID 0000.0001) ctrl-wet -------------------------------------------------
(PID.TID 0000.0001) ctrl-wet -------------------------------------------------
(PID.TID 0000.0001) ctrl_init: no. of control variables:           10
(PID.TID 0000.0001) ctrl_init: control vector length:        72172507
(PID.TID 0000.0001) 
(PID.TID 0000.0001) // =======================================================
(PID.TID 0000.0001) // control vector configuration  >>> START <<<
(PID.TID 0000.0001) // =======================================================
(PID.TID 0000.0001) 
(PID.TID 0000.0001)  Total number of ocean points per tile:
(PID.TID 0000.0001)  --------------------------------------
(PID.TID 0000.0001)  snx*sny*nr =    45000
(PID.TID 0000.0001) 
(PID.TID 0000.0001)  Number of ocean points per tile:
(PID.TID 0000.0001)  --------------------------------
(PID.TID 0000.0001)  bi,bj,#(c/s/w): 0001 0001 000282 000082 000260
(PID.TID 0000.0001) 
(PID.TID 0000.0001)  Settings of generic controls:
(PID.TID 0000.0001)  -----------------------------
(PID.TID 0000.0001) 
(PID.TID 0000.0001)  ctrlUseGen  =     T /* use generic controls */
(PID.TID 0000.0001)  -> 3d control, genarr3d no.  1 is in use
(PID.TID 0000.0001)       file       = xx_kapgm
(PID.TID 0000.0001)       weight     = wkapgmFld.data
(PID.TID 0000.0001)  preprocess = WC01
(PID.TID 0000.0001)  -> 3d control, genarr3d no.  2 is in use
(PID.TID 0000.0001)       file       = xx_kapredi
(PID.TID 0000.0001)       weight     = wkaprediFld.data
(PID.TID 0000.0001)  preprocess = WC01
(PID.TID 0000.0001)  -> 3d control, genarr3d no.  3 is in use
(PID.TID 0000.0001)       file       = xx_diffkr
(PID.TID 0000.0001)       weight     = wdiffkrFld.data
(PID.TID 0000.0001)  preprocess = WC01
(PID.TID 0000.0001)  -> time variable 2D control, gentim2d no.  1 is in use
(PID.TID 0000.0001)       file       = xx_precip
(PID.TID 0000.0001)       weight     = wprecip.data
(PID.TID 0000.0001)       period     =  00000014 000000
(PID.TID 0000.0001)       preprocess = WC01
(PID.TID 0000.0001)  -> time variable 2D control, gentim2d no.  2 is in use
(PID.TID 0000.0001)       file       = xx_lwdown
(PID.TID 0000.0001)       weight     = wlwdown.data
(PID.TID 0000.0001)       period     =  00000014 000000
(PID.TID 0000.0001)       preprocess = WC01
(PID.TID 0000.0001)  -> time variable 2D control, gentim2d no.  3 is in use
(PID.TID 0000.0001)       file       = xx_swdown
(PID.TID 0000.0001)       weight     = wswdown.data
(PID.TID 0000.0001)       period     =  00000014 000000
(PID.TID 0000.0001)       preprocess = WC01
(PID.TID 0000.0001)  -> time variable 2D control, gentim2d no.  4 is in use
(PID.TID 0000.0001)       file       = xx_aqh
(PID.TID 0000.0001)       weight     = waqh.data
(PID.TID 0000.0001)       period     =  00000014 000000
(PID.TID 0000.0001)       preprocess = WC01
(PID.TID 0000.0001)  -> time variable 2D control, gentim2d no.  5 is in use
(PID.TID 0000.0001)       file       = xx_atemp
(PID.TID 0000.0001)       weight     = watemp.data
(PID.TID 0000.0001)       period     =  00000014 000000
(PID.TID 0000.0001)       preprocess = WC01
(PID.TID 0000.0001)  -> time variable 2D control, gentim2d no.  6 is in use
(PID.TID 0000.0001)       file       = xx_uwind
(PID.TID 0000.0001)       weight     = wuwind.data
(PID.TID 0000.0001)       period     =  00000014 000000
(PID.TID 0000.0001)       preprocess = WC01
(PID.TID 0000.0001)  -> time variable 2D control, gentim2d no.  7 is in use
(PID.TID 0000.0001)       file       = xx_vwind
(PID.TID 0000.0001)       weight     = wvwind.data
(PID.TID 0000.0001)       period     =  00000014 000000
(PID.TID 0000.0001)       preprocess = WC01
(PID.TID 0000.0001) 
(PID.TID 0000.0001) // =======================================================
(PID.TID 0000.0001) // control vector configuration  >>> END <<<
(PID.TID 0000.0001) // =======================================================
(PID.TID 0000.0001) 
(PID.TID 0000.0001) ------------------------------------------------------------
(PID.TID 0000.0001) DIAGNOSTICS_SET_LEVELS: done
(PID.TID 0000.0001)  Total Nb of available Diagnostics: ndiagt=   855
(PID.TID 0000.0001)  write list of available Diagnostics to file: available_diagnostics.log
(PID.TID 0000.0001) SETDIAG: Allocate  1 x  1 Levels for Diagnostic #    23 ETAN
(PID.TID 0000.0001) SETDIAG: Allocate 50 x  1 Levels for Diagnostic #    29 SALTanom
(PID.TID 0000.0001) SETDIAG: Allocate 50 x  1 Levels for Diagnostic #    26 THETA
(PID.TID 0000.0001) SETDIAG: Allocate 50 x  1 Levels for Diagnostic #   628 TRAC32
(PID.TID 0000.0001) SETDIAG: Allocate  1 x  1 Levels for Diagnostic #   737 DICTFLX
(PID.TID 0000.0001) SETDIAG: Allocate  1 x  1 Levels for Diagnostic #   738 DICOFLX
(PID.TID 0000.0001) SETDIAG: Allocate  1 x  1 Levels for Diagnostic #   739 DICCFLX
(PID.TID 0000.0001) SETDIAG: Allocate  1 x  1 Levels for Diagnostic #   741 DICPCO2
(PID.TID 0000.0001) SETDIAG: Allocate  1 x  1 Levels for Diagnostic #   742 DICPHAV
(PID.TID 0000.0001) SETDIAG: Allocate 50 x  1 Levels for Diagnostic #   225 TRAC01
(PID.TID 0000.0001) SETDIAG: Allocate 50 x  1 Levels for Diagnostic #   238 TRAC02
(PID.TID 0000.0001) SETDIAG: Allocate 50 x  1 Levels for Diagnostic #   251 TRAC03
(PID.TID 0000.0001) SETDIAG: Allocate 50 x  1 Levels for Diagnostic #   264 TRAC04
(PID.TID 0000.0001) SETDIAG: Allocate 50 x  1 Levels for Diagnostic #   277 TRAC05
(PID.TID 0000.0001) SETDIAG: Allocate 50 x  1 Levels for Diagnostic #   290 TRAC06
(PID.TID 0000.0001) SETDIAG: Allocate 50 x  1 Levels for Diagnostic #   303 TRAC07
(PID.TID 0000.0001) SETDIAG: Allocate 50 x  1 Levels for Diagnostic #   316 TRAC08
(PID.TID 0000.0001) SETDIAG: Allocate 50 x  1 Levels for Diagnostic #   329 TRAC09
(PID.TID 0000.0001) SETDIAG: Allocate 50 x  1 Levels for Diagnostic #   342 TRAC10
(PID.TID 0000.0001) SETDIAG: Allocate 50 x  1 Levels for Diagnostic #   355 TRAC11
(PID.TID 0000.0001) SETDIAG: Allocate 50 x  1 Levels for Diagnostic #   368 TRAC12
(PID.TID 0000.0001) SETDIAG: Allocate 50 x  1 Levels for Diagnostic #   381 TRAC13
(PID.TID 0000.0001) SETDIAG: Allocate 50 x  1 Levels for Diagnostic #   394 TRAC14
(PID.TID 0000.0001) SETDIAG: Allocate 50 x  1 Levels for Diagnostic #   407 TRAC15
(PID.TID 0000.0001) SETDIAG: Allocate 50 x  1 Levels for Diagnostic #   420 TRAC16
(PID.TID 0000.0001) SETDIAG: Allocate 50 x  1 Levels for Diagnostic #   433 TRAC17
(PID.TID 0000.0001) SETDIAG: Allocate 50 x  1 Levels for Diagnostic #   446 TRAC18
(PID.TID 0000.0001) SETDIAG: Allocate 50 x  1 Levels for Diagnostic #   459 TRAC19
(PID.TID 0000.0001) SETDIAG: Allocate 50 x  1 Levels for Diagnostic #   472 TRAC20
(PID.TID 0000.0001) SETDIAG: Allocate 50 x  1 Levels for Diagnostic #   485 TRAC21
(PID.TID 0000.0001) SETDIAG: Allocate 50 x  1 Levels for Diagnostic #   498 TRAC22
(PID.TID 0000.0001) SETDIAG: Allocate 50 x  1 Levels for Diagnostic #   511 TRAC23
(PID.TID 0000.0001) SETDIAG: Allocate 50 x  1 Levels for Diagnostic #   524 TRAC24
(PID.TID 0000.0001) SETDIAG: Allocate 50 x  1 Levels for Diagnostic #   537 TRAC25
(PID.TID 0000.0001) SETDIAG: Allocate 50 x  1 Levels for Diagnostic #   550 TRAC26
(PID.TID 0000.0001) SETDIAG: Allocate 50 x  1 Levels for Diagnostic #   641 TRAC33
(PID.TID 0000.0001) SETDIAG: Allocate 50 x  1 Levels for Diagnostic #   654 TRAC34
(PID.TID 0000.0001) SETDIAG: Allocate 50 x  1 Levels for Diagnostic #   667 TRAC35
(PID.TID 0000.0001) SETDIAG: Allocate 50 x  1 Levels for Diagnostic #   680 TRAC36
(PID.TID 0000.0001) SETDIAG: Allocate 50 x  1 Levels for Diagnostic #   693 TRAC37
(PID.TID 0000.0001) SETDIAG: Allocate 50 x  1 Levels for Diagnostic #   706 TRAC38
(PID.TID 0000.0001) SETDIAG: Allocate 50 x  1 Levels for Diagnostic #   719 TRAC39
(PID.TID 0000.0001) SETDIAG: Allocate 50 x  1 Levels for Diagnostic #   563 TRAC27
(PID.TID 0000.0001) SETDIAG: Allocate 50 x  1 Levels for Diagnostic #   576 TRAC28
(PID.TID 0000.0001) SETDIAG: Allocate 50 x  1 Levels for Diagnostic #   589 TRAC29
(PID.TID 0000.0001) SETDIAG: Allocate 50 x  1 Levels for Diagnostic #   602 TRAC30
(PID.TID 0000.0001) SETDIAG: Allocate 50 x  1 Levels for Diagnostic #   615 TRAC31
(PID.TID 0000.0001) SETDIAG: Allocate  1 x  1 Levels for Diagnostic #   187 EXFwspee
(PID.TID 0000.0001) SETDIAG: Allocate 50 x  1 Levels for Diagnostic #   733 PAR
(PID.TID 0000.0001) SETDIAG: Allocate 50 x  1 Levels for Diagnostic #   734 PP
(PID.TID 0000.0001) SETDIAG: Allocate  1 x  1 Levels for Diagnostic #   782 SIarea
(PID.TID 0000.0001) SETDIAG: Allocate  1 x  1 Levels for Diagnostic #   785 SIheff
(PID.TID 0000.0001) SETDIAG: Allocate  1 x  1 Levels for Diagnostic #   198 EXFapco2
(PID.TID 0000.0001) SETDIAG: Allocate  1 x  1 Levels for Diagnostic #   198 EXFapco2
(PID.TID 0000.0001) SETDIAG: Allocate  1 x  1 Levels for Diagnostic #   739 DICCFLX
(PID.TID 0000.0001) SETDIAG: Allocate  1 x  1 Levels for Diagnostic #   740 DICFGCO2
(PID.TID 0000.0001) SETDIAG: Allocate 50 x  1 Levels for Diagnostic #    39 UE_VEL_C
(PID.TID 0000.0001) SETDIAG: Allocate 50 x  1 Levels for Diagnostic #    40 VN_VEL_C
(PID.TID 0000.0001) SETDIAG: Allocate 50 x  1 Levels for Diagnostic #    32 WVEL
(PID.TID 0000.0001) SETDIAG: Allocate  1 x  1 Levels for Diagnostic #   739 DICCFLX
(PID.TID 0000.0001) SETDIAG: Allocate  1 x  1 Levels for Diagnostic #   741 DICPCO2
(PID.TID 0000.0001) SETDIAG: Allocate  1 x  1 Levels for Diagnostic #   738 DICOFLX
(PID.TID 0000.0001) SETDIAG: Allocate  1 x  1 Levels for Diagnostic #    87 oceQsw
(PID.TID 0000.0001) SETDIAG: Allocate  1 x  1 Levels for Diagnostic #    86 oceQnet
(PID.TID 0000.0001) SETDIAG: Allocate  1 x  1 Levels for Diagnostic #   187 EXFwspee
(PID.TID 0000.0001)   space allocated for all diagnostics:    2319 levels
(PID.TID 0000.0001)   set mate pointer for diag #    39  UE_VEL_C , Parms: UMR     MR , mate:    40
(PID.TID 0000.0001)   set mate pointer for diag #    40  VN_VEL_C , Parms: VMR     MR , mate:    39
(PID.TID 0000.0001) DIAGNOSTICS_SET_POINTERS: Set levels for Outp.Stream: ETAN_snap
(PID.TID 0000.0001)  Levels:       1.
(PID.TID 0000.0001) DIAGNOSTICS_SET_POINTERS: Set levels for Outp.Stream: SALTanom
(PID.TID 0000.0001)  Levels:       1.   2.   3.   4.   5.   6.   7.   8.   9.  10.  11.  12.  13.  14.  15.  16.  17.  18.  19.  20.
(PID.TID 0000.0001)  Levels:      21.  22.  23.  24.  25.  26.  27.  28.  29.  30.  31.  32.  33.  34.  35.  36.  37.  38.  39.  40.
(PID.TID 0000.0001)  Levels:      41.  42.  43.  44.  45.  46.  47.  48.  49.  50.
(PID.TID 0000.0001) DIAGNOSTICS_SET_POINTERS: Set levels for Outp.Stream: THETA
(PID.TID 0000.0001)  Levels:       1.   2.   3.   4.   5.   6.   7.   8.   9.  10.  11.  12.  13.  14.  15.  16.  17.  18.  19.  20.
(PID.TID 0000.0001)  Levels:      21.  22.  23.  24.  25.  26.  27.  28.  29.  30.  31.  32.  33.  34.  35.  36.  37.  38.  39.  40.
(PID.TID 0000.0001)  Levels:      41.  42.  43.  44.  45.  46.  47.  48.  49.  50.
(PID.TID 0000.0001) DIAGNOSTICS_SET_POINTERS: Set levels for Outp.Stream: DIC
(PID.TID 0000.0001)  Levels:       1.   2.   3.   4.   5.   6.   7.   8.   9.  10.  11.  12.  13.  14.  15.  16.  17.  18.  19.  20.
(PID.TID 0000.0001)  Levels:      21.  22.  23.  24.  25.  26.  27.  28.  29.  30.  31.  32.  33.  34.  35.  36.  37.  38.  39.  40.
(PID.TID 0000.0001)  Levels:      41.  42.  43.  44.  45.  46.  47.  48.  49.  50.
(PID.TID 0000.0001) DIAGNOSTICS_SET_POINTERS: Set levels for Outp.Stream: DICTFLX
(PID.TID 0000.0001)  Levels:       1.
(PID.TID 0000.0001) DIAGNOSTICS_SET_POINTERS: Set levels for Outp.Stream: DICOFLX
(PID.TID 0000.0001)  Levels:       1.
(PID.TID 0000.0001) DIAGNOSTICS_SET_POINTERS: Set levels for Outp.Stream: DICCFLX
(PID.TID 0000.0001)  Levels:       1.
(PID.TID 0000.0001) DIAGNOSTICS_SET_POINTERS: Set levels for Outp.Stream: DICPCO2
(PID.TID 0000.0001)  Levels:       1.
(PID.TID 0000.0001) DIAGNOSTICS_SET_POINTERS: Set levels for Outp.Stream: DICPHAV
(PID.TID 0000.0001)  Levels:       1.
(PID.TID 0000.0001) DIAGNOSTICS_SET_POINTERS: Set levels for Outp.Stream: PO4
(PID.TID 0000.0001)  Levels:       1.   2.   3.   4.   5.   6.   7.   8.   9.  10.  11.  12.  13.  14.  15.  16.  17.  18.  19.  20.
(PID.TID 0000.0001)  Levels:      21.  22.  23.  24.  25.  26.  27.  28.  29.  30.  31.  32.  33.  34.  35.  36.  37.  38.  39.  40.
(PID.TID 0000.0001)  Levels:      41.  42.  43.  44.  45.  46.  47.  48.  49.  50.
(PID.TID 0000.0001) DIAGNOSTICS_SET_POINTERS: Set levels for Outp.Stream: NO3
(PID.TID 0000.0001)  Levels:       1.   2.   3.   4.   5.   6.   7.   8.   9.  10.  11.  12.  13.  14.  15.  16.  17.  18.  19.  20.
(PID.TID 0000.0001)  Levels:      21.  22.  23.  24.  25.  26.  27.  28.  29.  30.  31.  32.  33.  34.  35.  36.  37.  38.  39.  40.
(PID.TID 0000.0001)  Levels:      41.  42.  43.  44.  45.  46.  47.  48.  49.  50.
(PID.TID 0000.0001) DIAGNOSTICS_SET_POINTERS: Set levels for Outp.Stream: FeT
(PID.TID 0000.0001)  Levels:       1.   2.   3.   4.   5.   6.   7.   8.   9.  10.  11.  12.  13.  14.  15.  16.  17.  18.  19.  20.
(PID.TID 0000.0001)  Levels:      21.  22.  23.  24.  25.  26.  27.  28.  29.  30.  31.  32.  33.  34.  35.  36.  37.  38.  39.  40.
(PID.TID 0000.0001)  Levels:      41.  42.  43.  44.  45.  46.  47.  48.  49.  50.
(PID.TID 0000.0001) DIAGNOSTICS_SET_POINTERS: Set levels for Outp.Stream: SiO2
(PID.TID 0000.0001)  Levels:       1.   2.   3.   4.   5.   6.   7.   8.   9.  10.  11.  12.  13.  14.  15.  16.  17.  18.  19.  20.
(PID.TID 0000.0001)  Levels:      21.  22.  23.  24.  25.  26.  27.  28.  29.  30.  31.  32.  33.  34.  35.  36.  37.  38.  39.  40.
(PID.TID 0000.0001)  Levels:      41.  42.  43.  44.  45.  46.  47.  48.  49.  50.
(PID.TID 0000.0001) DIAGNOSTICS_SET_POINTERS: Set levels for Outp.Stream: DOP
(PID.TID 0000.0001)  Levels:       1.   2.   3.   4.   5.   6.   7.   8.   9.  10.  11.  12.  13.  14.  15.  16.  17.  18.  19.  20.
(PID.TID 0000.0001)  Levels:      21.  22.  23.  24.  25.  26.  27.  28.  29.  30.  31.  32.  33.  34.  35.  36.  37.  38.  39.  40.
(PID.TID 0000.0001)  Levels:      41.  42.  43.  44.  45.  46.  47.  48.  49.  50.
(PID.TID 0000.0001) DIAGNOSTICS_SET_POINTERS: Set levels for Outp.Stream: DON
(PID.TID 0000.0001)  Levels:       1.   2.   3.   4.   5.   6.   7.   8.   9.  10.  11.  12.  13.  14.  15.  16.  17.  18.  19.  20.
(PID.TID 0000.0001)  Levels:      21.  22.  23.  24.  25.  26.  27.  28.  29.  30.  31.  32.  33.  34.  35.  36.  37.  38.  39.  40.
(PID.TID 0000.0001)  Levels:      41.  42.  43.  44.  45.  46.  47.  48.  49.  50.
(PID.TID 0000.0001) DIAGNOSTICS_SET_POINTERS: Set levels for Outp.Stream: DOFe
(PID.TID 0000.0001)  Levels:       1.   2.   3.   4.   5.   6.   7.   8.   9.  10.  11.  12.  13.  14.  15.  16.  17.  18.  19.  20.
(PID.TID 0000.0001)  Levels:      21.  22.  23.  24.  25.  26.  27.  28.  29.  30.  31.  32.  33.  34.  35.  36.  37.  38.  39.  40.
(PID.TID 0000.0001)  Levels:      41.  42.  43.  44.  45.  46.  47.  48.  49.  50.
(PID.TID 0000.0001) DIAGNOSTICS_SET_POINTERS: Set levels for Outp.Stream: ZOO1P
(PID.TID 0000.0001)  Levels:       1.   2.   3.   4.   5.   6.   7.   8.   9.  10.  11.  12.  13.  14.  15.  16.  17.  18.  19.  20.
(PID.TID 0000.0001)  Levels:      21.  22.  23.  24.  25.  26.  27.  28.  29.  30.  31.  32.  33.  34.  35.  36.  37.  38.  39.  40.
(PID.TID 0000.0001)  Levels:      41.  42.  43.  44.  45.  46.  47.  48.  49.  50.
(PID.TID 0000.0001) DIAGNOSTICS_SET_POINTERS: Set levels for Outp.Stream: ZOO1N
(PID.TID 0000.0001)  Levels:       1.   2.   3.   4.   5.   6.   7.   8.   9.  10.  11.  12.  13.  14.  15.  16.  17.  18.  19.  20.
(PID.TID 0000.0001)  Levels:      21.  22.  23.  24.  25.  26.  27.  28.  29.  30.  31.  32.  33.  34.  35.  36.  37.  38.  39.  40.
(PID.TID 0000.0001)  Levels:      41.  42.  43.  44.  45.  46.  47.  48.  49.  50.
(PID.TID 0000.0001) DIAGNOSTICS_SET_POINTERS: Set levels for Outp.Stream: ZOO1Fe
(PID.TID 0000.0001)  Levels:       1.   2.   3.   4.   5.   6.   7.   8.   9.  10.  11.  12.  13.  14.  15.  16.  17.  18.  19.  20.
(PID.TID 0000.0001)  Levels:      21.  22.  23.  24.  25.  26.  27.  28.  29.  30.  31.  32.  33.  34.  35.  36.  37.  38.  39.  40.
(PID.TID 0000.0001)  Levels:      41.  42.  43.  44.  45.  46.  47.  48.  49.  50.
(PID.TID 0000.0001) DIAGNOSTICS_SET_POINTERS: Set levels for Outp.Stream: ZOO1Si
(PID.TID 0000.0001)  Levels:       1.   2.   3.   4.   5.   6.   7.   8.   9.  10.  11.  12.  13.  14.  15.  16.  17.  18.  19.  20.
(PID.TID 0000.0001)  Levels:      21.  22.  23.  24.  25.  26.  27.  28.  29.  30.  31.  32.  33.  34.  35.  36.  37.  38.  39.  40.
(PID.TID 0000.0001)  Levels:      41.  42.  43.  44.  45.  46.  47.  48.  49.  50.
(PID.TID 0000.0001) DIAGNOSTICS_SET_POINTERS: Set levels for Outp.Stream: ZOO2P
(PID.TID 0000.0001)  Levels:       1.   2.   3.   4.   5.   6.   7.   8.   9.  10.  11.  12.  13.  14.  15.  16.  17.  18.  19.  20.
(PID.TID 0000.0001)  Levels:      21.  22.  23.  24.  25.  26.  27.  28.  29.  30.  31.  32.  33.  34.  35.  36.  37.  38.  39.  40.
(PID.TID 0000.0001)  Levels:      41.  42.  43.  44.  45.  46.  47.  48.  49.  50.
(PID.TID 0000.0001) DIAGNOSTICS_SET_POINTERS: Set levels for Outp.Stream: ZOO2N
(PID.TID 0000.0001)  Levels:       1.   2.   3.   4.   5.   6.   7.   8.   9.  10.  11.  12.  13.  14.  15.  16.  17.  18.  19.  20.
(PID.TID 0000.0001)  Levels:      21.  22.  23.  24.  25.  26.  27.  28.  29.  30.  31.  32.  33.  34.  35.  36.  37.  38.  39.  40.
(PID.TID 0000.0001)  Levels:      41.  42.  43.  44.  45.  46.  47.  48.  49.  50.
(PID.TID 0000.0001) DIAGNOSTICS_SET_POINTERS: Set levels for Outp.Stream: ZOO2Fe
(PID.TID 0000.0001)  Levels:       1.   2.   3.   4.   5.   6.   7.   8.   9.  10.  11.  12.  13.  14.  15.  16.  17.  18.  19.  20.
(PID.TID 0000.0001)  Levels:      21.  22.  23.  24.  25.  26.  27.  28.  29.  30.  31.  32.  33.  34.  35.  36.  37.  38.  39.  40.
(PID.TID 0000.0001)  Levels:      41.  42.  43.  44.  45.  46.  47.  48.  49.  50.
(PID.TID 0000.0001) DIAGNOSTICS_SET_POINTERS: Set levels for Outp.Stream: ZOO2Si
(PID.TID 0000.0001)  Levels:       1.   2.   3.   4.   5.   6.   7.   8.   9.  10.  11.  12.  13.  14.  15.  16.  17.  18.  19.  20.
(PID.TID 0000.0001)  Levels:      21.  22.  23.  24.  25.  26.  27.  28.  29.  30.  31.  32.  33.  34.  35.  36.  37.  38.  39.  40.
(PID.TID 0000.0001)  Levels:      41.  42.  43.  44.  45.  46.  47.  48.  49.  50.
(PID.TID 0000.0001) DIAGNOSTICS_SET_POINTERS: Set levels for Outp.Stream: POP
(PID.TID 0000.0001)  Levels:       1.   2.   3.   4.   5.   6.   7.   8.   9.  10.  11.  12.  13.  14.  15.  16.  17.  18.  19.  20.
(PID.TID 0000.0001)  Levels:      21.  22.  23.  24.  25.  26.  27.  28.  29.  30.  31.  32.  33.  34.  35.  36.  37.  38.  39.  40.
(PID.TID 0000.0001)  Levels:      41.  42.  43.  44.  45.  46.  47.  48.  49.  50.
(PID.TID 0000.0001) DIAGNOSTICS_SET_POINTERS: Set levels for Outp.Stream: PON
(PID.TID 0000.0001)  Levels:       1.   2.   3.   4.   5.   6.   7.   8.   9.  10.  11.  12.  13.  14.  15.  16.  17.  18.  19.  20.
(PID.TID 0000.0001)  Levels:      21.  22.  23.  24.  25.  26.  27.  28.  29.  30.  31.  32.  33.  34.  35.  36.  37.  38.  39.  40.
(PID.TID 0000.0001)  Levels:      41.  42.  43.  44.  45.  46.  47.  48.  49.  50.
(PID.TID 0000.0001) DIAGNOSTICS_SET_POINTERS: Set levels for Outp.Stream: POFe
(PID.TID 0000.0001)  Levels:       1.   2.   3.   4.   5.   6.   7.   8.   9.  10.  11.  12.  13.  14.  15.  16.  17.  18.  19.  20.
(PID.TID 0000.0001)  Levels:      21.  22.  23.  24.  25.  26.  27.  28.  29.  30.  31.  32.  33.  34.  35.  36.  37.  38.  39.  40.
(PID.TID 0000.0001)  Levels:      41.  42.  43.  44.  45.  46.  47.  48.  49.  50.
(PID.TID 0000.0001) DIAGNOSTICS_SET_POINTERS: Set levels for Outp.Stream: POSi
(PID.TID 0000.0001)  Levels:       1.   2.   3.   4.   5.   6.   7.   8.   9.  10.  11.  12.  13.  14.  15.  16.  17.  18.  19.  20.
(PID.TID 0000.0001)  Levels:      21.  22.  23.  24.  25.  26.  27.  28.  29.  30.  31.  32.  33.  34.  35.  36.  37.  38.  39.  40.
(PID.TID 0000.0001)  Levels:      41.  42.  43.  44.  45.  46.  47.  48.  49.  50.
(PID.TID 0000.0001) DIAGNOSTICS_SET_POINTERS: Set levels for Outp.Stream: NH4
(PID.TID 0000.0001)  Levels:       1.   2.   3.   4.   5.   6.   7.   8.   9.  10.  11.  12.  13.  14.  15.  16.  17.  18.  19.  20.
(PID.TID 0000.0001)  Levels:      21.  22.  23.  24.  25.  26.  27.  28.  29.  30.  31.  32.  33.  34.  35.  36.  37.  38.  39.  40.
(PID.TID 0000.0001)  Levels:      41.  42.  43.  44.  45.  46.  47.  48.  49.  50.
(PID.TID 0000.0001) DIAGNOSTICS_SET_POINTERS: Set levels for Outp.Stream: NO2
(PID.TID 0000.0001)  Levels:       1.   2.   3.   4.   5.   6.   7.   8.   9.  10.  11.  12.  13.  14.  15.  16.  17.  18.  19.  20.
(PID.TID 0000.0001)  Levels:      21.  22.  23.  24.  25.  26.  27.  28.  29.  30.  31.  32.  33.  34.  35.  36.  37.  38.  39.  40.
(PID.TID 0000.0001)  Levels:      41.  42.  43.  44.  45.  46.  47.  48.  49.  50.
(PID.TID 0000.0001) DIAGNOSTICS_SET_POINTERS: Set levels for Outp.Stream: Phy01
(PID.TID 0000.0001)  Levels:       1.   2.   3.   4.   5.   6.   7.   8.   9.  10.  11.  12.  13.  14.  15.  16.  17.  18.  19.  20.
(PID.TID 0000.0001)  Levels:      21.  22.  23.  24.  25.  26.  27.  28.  29.  30.  31.  32.  33.  34.  35.  36.  37.  38.  39.  40.
(PID.TID 0000.0001)  Levels:      41.  42.  43.  44.  45.  46.  47.  48.  49.  50.
(PID.TID 0000.0001) DIAGNOSTICS_SET_POINTERS: Set levels for Outp.Stream: Phy02
(PID.TID 0000.0001)  Levels:       1.   2.   3.   4.   5.   6.   7.   8.   9.  10.  11.  12.  13.  14.  15.  16.  17.  18.  19.  20.
(PID.TID 0000.0001)  Levels:      21.  22.  23.  24.  25.  26.  27.  28.  29.  30.  31.  32.  33.  34.  35.  36.  37.  38.  39.  40.
(PID.TID 0000.0001)  Levels:      41.  42.  43.  44.  45.  46.  47.  48.  49.  50.
(PID.TID 0000.0001) DIAGNOSTICS_SET_POINTERS: Set levels for Outp.Stream: Phy03
(PID.TID 0000.0001)  Levels:       1.   2.   3.   4.   5.   6.   7.   8.   9.  10.  11.  12.  13.  14.  15.  16.  17.  18.  19.  20.
(PID.TID 0000.0001)  Levels:      21.  22.  23.  24.  25.  26.  27.  28.  29.  30.  31.  32.  33.  34.  35.  36.  37.  38.  39.  40.
(PID.TID 0000.0001)  Levels:      41.  42.  43.  44.  45.  46.  47.  48.  49.  50.
(PID.TID 0000.0001) DIAGNOSTICS_SET_POINTERS: Set levels for Outp.Stream: Phy04
(PID.TID 0000.0001)  Levels:       1.   2.   3.   4.   5.   6.   7.   8.   9.  10.  11.  12.  13.  14.  15.  16.  17.  18.  19.  20.
(PID.TID 0000.0001)  Levels:      21.  22.  23.  24.  25.  26.  27.  28.  29.  30.  31.  32.  33.  34.  35.  36.  37.  38.  39.  40.
(PID.TID 0000.0001)  Levels:      41.  42.  43.  44.  45.  46.  47.  48.  49.  50.
(PID.TID 0000.0001) DIAGNOSTICS_SET_POINTERS: Set levels for Outp.Stream: Phy05
(PID.TID 0000.0001)  Levels:       1.   2.   3.   4.   5.   6.   7.   8.   9.  10.  11.  12.  13.  14.  15.  16.  17.  18.  19.  20.
(PID.TID 0000.0001)  Levels:      21.  22.  23.  24.  25.  26.  27.  28.  29.  30.  31.  32.  33.  34.  35.  36.  37.  38.  39.  40.
(PID.TID 0000.0001)  Levels:      41.  42.  43.  44.  45.  46.  47.  48.  49.  50.
(PID.TID 0000.0001) DIAGNOSTICS_SET_POINTERS: Set levels for Outp.Stream: DOC
(PID.TID 0000.0001)  Levels:       1.   2.   3.   4.   5.   6.   7.   8.   9.  10.  11.  12.  13.  14.  15.  16.  17.  18.  19.  20.
(PID.TID 0000.0001)  Levels:      21.  22.  23.  24.  25.  26.  27.  28.  29.  30.  31.  32.  33.  34.  35.  36.  37.  38.  39.  40.
(PID.TID 0000.0001)  Levels:      41.  42.  43.  44.  45.  46.  47.  48.  49.  50.
(PID.TID 0000.0001) DIAGNOSTICS_SET_POINTERS: Set levels for Outp.Stream: POC
(PID.TID 0000.0001)  Levels:       1.   2.   3.   4.   5.   6.   7.   8.   9.  10.  11.  12.  13.  14.  15.  16.  17.  18.  19.  20.
(PID.TID 0000.0001)  Levels:      21.  22.  23.  24.  25.  26.  27.  28.  29.  30.  31.  32.  33.  34.  35.  36.  37.  38.  39.  40.
(PID.TID 0000.0001)  Levels:      41.  42.  43.  44.  45.  46.  47.  48.  49.  50.
(PID.TID 0000.0001) DIAGNOSTICS_SET_POINTERS: Set levels for Outp.Stream: PIC
(PID.TID 0000.0001)  Levels:       1.   2.   3.   4.   5.   6.   7.   8.   9.  10.  11.  12.  13.  14.  15.  16.  17.  18.  19.  20.
(PID.TID 0000.0001)  Levels:      21.  22.  23.  24.  25.  26.  27.  28.  29.  30.  31.  32.  33.  34.  35.  36.  37.  38.  39.  40.
(PID.TID 0000.0001)  Levels:      41.  42.  43.  44.  45.  46.  47.  48.  49.  50.
(PID.TID 0000.0001) DIAGNOSTICS_SET_POINTERS: Set levels for Outp.Stream: ALK
(PID.TID 0000.0001)  Levels:       1.   2.   3.   4.   5.   6.   7.   8.   9.  10.  11.  12.  13.  14.  15.  16.  17.  18.  19.  20.
(PID.TID 0000.0001)  Levels:      21.  22.  23.  24.  25.  26.  27.  28.  29.  30.  31.  32.  33.  34.  35.  36.  37.  38.  39.  40.
(PID.TID 0000.0001)  Levels:      41.  42.  43.  44.  45.  46.  47.  48.  49.  50.
(PID.TID 0000.0001) DIAGNOSTICS_SET_POINTERS: Set levels for Outp.Stream: O2
(PID.TID 0000.0001)  Levels:       1.   2.   3.   4.   5.   6.   7.   8.   9.  10.  11.  12.  13.  14.  15.  16.  17.  18.  19.  20.
(PID.TID 0000.0001)  Levels:      21.  22.  23.  24.  25.  26.  27.  28.  29.  30.  31.  32.  33.  34.  35.  36.  37.  38.  39.  40.
(PID.TID 0000.0001)  Levels:      41.  42.  43.  44.  45.  46.  47.  48.  49.  50.
(PID.TID 0000.0001) DIAGNOSTICS_SET_POINTERS: Set levels for Outp.Stream: ZOOC1
(PID.TID 0000.0001)  Levels:       1.   2.   3.   4.   5.   6.   7.   8.   9.  10.  11.  12.  13.  14.  15.  16.  17.  18.  19.  20.
(PID.TID 0000.0001)  Levels:      21.  22.  23.  24.  25.  26.  27.  28.  29.  30.  31.  32.  33.  34.  35.  36.  37.  38.  39.  40.
(PID.TID 0000.0001)  Levels:      41.  42.  43.  44.  45.  46.  47.  48.  49.  50.
(PID.TID 0000.0001) DIAGNOSTICS_SET_POINTERS: Set levels for Outp.Stream: ZOOC2
(PID.TID 0000.0001)  Levels:       1.   2.   3.   4.   5.   6.   7.   8.   9.  10.  11.  12.  13.  14.  15.  16.  17.  18.  19.  20.
(PID.TID 0000.0001)  Levels:      21.  22.  23.  24.  25.  26.  27.  28.  29.  30.  31.  32.  33.  34.  35.  36.  37.  38.  39.  40.
(PID.TID 0000.0001)  Levels:      41.  42.  43.  44.  45.  46.  47.  48.  49.  50.
(PID.TID 0000.0001) DIAGNOSTICS_SET_POINTERS: Set levels for Outp.Stream: CHL1
(PID.TID 0000.0001)  Levels:       1.   2.   3.   4.   5.   6.   7.   8.   9.  10.  11.  12.  13.  14.  15.  16.  17.  18.  19.  20.
(PID.TID 0000.0001)  Levels:      21.  22.  23.  24.  25.  26.  27.  28.  29.  30.  31.  32.  33.  34.  35.  36.  37.  38.  39.  40.
(PID.TID 0000.0001)  Levels:      41.  42.  43.  44.  45.  46.  47.  48.  49.  50.
(PID.TID 0000.0001) DIAGNOSTICS_SET_POINTERS: Set levels for Outp.Stream: CHL2
(PID.TID 0000.0001)  Levels:       1.   2.   3.   4.   5.   6.   7.   8.   9.  10.  11.  12.  13.  14.  15.  16.  17.  18.  19.  20.
(PID.TID 0000.0001)  Levels:      21.  22.  23.  24.  25.  26.  27.  28.  29.  30.  31.  32.  33.  34.  35.  36.  37.  38.  39.  40.
(PID.TID 0000.0001)  Levels:      41.  42.  43.  44.  45.  46.  47.  48.  49.  50.
(PID.TID 0000.0001) DIAGNOSTICS_SET_POINTERS: Set levels for Outp.Stream: CHL3
(PID.TID 0000.0001)  Levels:       1.   2.   3.   4.   5.   6.   7.   8.   9.  10.  11.  12.  13.  14.  15.  16.  17.  18.  19.  20.
(PID.TID 0000.0001)  Levels:      21.  22.  23.  24.  25.  26.  27.  28.  29.  30.  31.  32.  33.  34.  35.  36.  37.  38.  39.  40.
(PID.TID 0000.0001)  Levels:      41.  42.  43.  44.  45.  46.  47.  48.  49.  50.
(PID.TID 0000.0001) DIAGNOSTICS_SET_POINTERS: Set levels for Outp.Stream: CHL4
(PID.TID 0000.0001)  Levels:       1.   2.   3.   4.   5.   6.   7.   8.   9.  10.  11.  12.  13.  14.  15.  16.  17.  18.  19.  20.
(PID.TID 0000.0001)  Levels:      21.  22.  23.  24.  25.  26.  27.  28.  29.  30.  31.  32.  33.  34.  35.  36.  37.  38.  39.  40.
(PID.TID 0000.0001)  Levels:      41.  42.  43.  44.  45.  46.  47.  48.  49.  50.
(PID.TID 0000.0001) DIAGNOSTICS_SET_POINTERS: Set levels for Outp.Stream: CHL5
(PID.TID 0000.0001)  Levels:       1.   2.   3.   4.   5.   6.   7.   8.   9.  10.  11.  12.  13.  14.  15.  16.  17.  18.  19.  20.
(PID.TID 0000.0001)  Levels:      21.  22.  23.  24.  25.  26.  27.  28.  29.  30.  31.  32.  33.  34.  35.  36.  37.  38.  39.  40.
(PID.TID 0000.0001)  Levels:      41.  42.  43.  44.  45.  46.  47.  48.  49.  50.
(PID.TID 0000.0001) DIAGNOSTICS_SET_POINTERS: Set levels for Outp.Stream: EXFwspee
(PID.TID 0000.0001)  Levels:       1.
(PID.TID 0000.0001) DIAGNOSTICS_SET_POINTERS: Set levels for Outp.Stream: PAR
(PID.TID 0000.0001)  Levels:       1.   2.   3.   4.   5.   6.   7.   8.   9.  10.  11.  12.  13.  14.  15.  16.  17.  18.  19.  20.
(PID.TID 0000.0001)  Levels:      21.  22.  23.  24.  25.  26.  27.  28.  29.  30.  31.  32.  33.  34.  35.  36.  37.  38.  39.  40.
(PID.TID 0000.0001)  Levels:      41.  42.  43.  44.  45.  46.  47.  48.  49.  50.
(PID.TID 0000.0001) DIAGNOSTICS_SET_POINTERS: Set levels for Outp.Stream: PP
(PID.TID 0000.0001)  Levels:       1.   2.   3.   4.   5.   6.   7.   8.   9.  10.  11.  12.  13.  14.  15.  16.  17.  18.  19.  20.
(PID.TID 0000.0001)  Levels:      21.  22.  23.  24.  25.  26.  27.  28.  29.  30.  31.  32.  33.  34.  35.  36.  37.  38.  39.  40.
(PID.TID 0000.0001)  Levels:      41.  42.  43.  44.  45.  46.  47.  48.  49.  50.
(PID.TID 0000.0001) DIAGNOSTICS_SET_POINTERS: Set levels for Outp.Stream: SIarea_month
(PID.TID 0000.0001)  Levels:       1.
(PID.TID 0000.0001) DIAGNOSTICS_SET_POINTERS: Set levels for Outp.Stream: SIheff_month
(PID.TID 0000.0001)  Levels:       1.
(PID.TID 0000.0001) DIAGNOSTICS_SET_POINTERS: Set levels for Outp.Stream: EXFapco2_month
(PID.TID 0000.0001)  Levels:       1.
(PID.TID 0000.0001) DIAGNOSTICS_SET_POINTERS: Set levels for Outp.Stream: EXFapco2_snap
(PID.TID 0000.0001)  Levels:       1.
(PID.TID 0000.0001) DIAGNOSTICS_SET_POINTERS: Set levels for Outp.Stream: DICCFLX_3hrly
(PID.TID 0000.0001)  Levels:       1.
(PID.TID 0000.0001) DIAGNOSTICS_SET_POINTERS: Set levels for Outp.Stream: DICFGCO2
(PID.TID 0000.0001)  Levels:       1.
(PID.TID 0000.0001) DIAGNOSTICS_SET_POINTERS: Set levels for Outp.Stream: UE_VEL_C
(PID.TID 0000.0001)  Levels:       1.   2.   3.   4.   5.   6.   7.   8.   9.  10.  11.  12.  13.  14.  15.  16.  17.  18.  19.  20.
(PID.TID 0000.0001)  Levels:      21.  22.  23.  24.  25.  26.  27.  28.  29.  30.  31.  32.  33.  34.  35.  36.  37.  38.  39.  40.
(PID.TID 0000.0001)  Levels:      41.  42.  43.  44.  45.  46.  47.  48.  49.  50.
(PID.TID 0000.0001) DIAGNOSTICS_SET_POINTERS: Set levels for Outp.Stream: VN_VEL_C
(PID.TID 0000.0001)  Levels:       1.   2.   3.   4.   5.   6.   7.   8.   9.  10.  11.  12.  13.  14.  15.  16.  17.  18.  19.  20.
(PID.TID 0000.0001)  Levels:      21.  22.  23.  24.  25.  26.  27.  28.  29.  30.  31.  32.  33.  34.  35.  36.  37.  38.  39.  40.
(PID.TID 0000.0001)  Levels:      41.  42.  43.  44.  45.  46.  47.  48.  49.  50.
(PID.TID 0000.0001) DIAGNOSTICS_SET_POINTERS: Set levels for Outp.Stream: WVEL
(PID.TID 0000.0001)  Levels:       1.   2.   3.   4.   5.   6.   7.   8.   9.  10.  11.  12.  13.  14.  15.  16.  17.  18.  19.  20.
(PID.TID 0000.0001)  Levels:      21.  22.  23.  24.  25.  26.  27.  28.  29.  30.  31.  32.  33.  34.  35.  36.  37.  38.  39.  40.
(PID.TID 0000.0001)  Levels:      41.  42.  43.  44.  45.  46.  47.  48.  49.  50.
(PID.TID 0000.0001) DIAGNOSTICS_SET_POINTERS: Set levels for Outp.Stream: DICCFLX_month
(PID.TID 0000.0001)  Levels:       1.
(PID.TID 0000.0001) DIAGNOSTICS_SET_POINTERS: Set levels for Outp.Stream: DICPCO2_month
(PID.TID 0000.0001)  Levels:       1.
(PID.TID 0000.0001) DIAGNOSTICS_SET_POINTERS: Set levels for Outp.Stream: DICOFLX_month
(PID.TID 0000.0001)  Levels:       1.
(PID.TID 0000.0001) DIAGNOSTICS_SET_POINTERS: Set levels for Outp.Stream: oceQsw_month
(PID.TID 0000.0001)  Levels:       1.
(PID.TID 0000.0001) DIAGNOSTICS_SET_POINTERS: Set levels for Outp.Stream: oceQnet_month
(PID.TID 0000.0001)  Levels:       1.
(PID.TID 0000.0001) DIAGNOSTICS_SET_POINTERS: Set levels for Outp.Stream: EXFwspee_month
(PID.TID 0000.0001)  Levels:       1.
(PID.TID 0000.0001) DIAGNOSTICS_SET_POINTERS: done
(PID.TID 0000.0001) ------------------------------------------------------------
(PID.TID 0000.0001) DIAGSTATS_SET_REGIONS: define   0 regions:
(PID.TID 0000.0001) ------------------------------------------------------------
(PID.TID 0000.0001)   space allocated for all stats-diags:       0 levels
(PID.TID 0000.0001) DIAGSTATS_SET_POINTERS: done
(PID.TID 0000.0001) ------------------------------------------------------------
(PID.TID 0000.0001) INI_GLOBAL_DOMAIN: Found   0 CS-corner Pts in the domain
(PID.TID 0000.0001) %MON fCori_max                    =   1.4584230272371E-04
(PID.TID 0000.0001) %MON fCori_min                    =  -1.4432882832301E-04
(PID.TID 0000.0001) %MON fCori_mean                   =  -8.3628118753190E-06
(PID.TID 0000.0001) %MON fCori_sd                     =   1.0468986562530E-04
(PID.TID 0000.0001) %MON fCoriG_max                   =   1.4584247033981E-04
(PID.TID 0000.0001) %MON fCoriG_min                   =  -1.4434871626533E-04
(PID.TID 0000.0001) %MON fCoriG_mean                  =  -8.3490352410808E-06
(PID.TID 0000.0001) %MON fCoriG_sd                    =   1.0469994212418E-04
(PID.TID 0000.0001) %MON fCoriCos_max                 =   1.4584193734976E-04
(PID.TID 0000.0001) %MON fCoriCos_min                 =   2.2111323359233E-07
(PID.TID 0000.0001) %MON fCoriCos_mean                =   9.3514953636758E-05
(PID.TID 0000.0001) %MON fCoriCos_sd                  =   3.8666199891203E-05
(PID.TID 0000.0001) INI_CG2D: CG2D normalisation factor =  1.4983710049048260E-04
(PID.TID 0000.0001) INI_CG2D: cg2dTolerance = 4.482290020071504E-05 (Area=3.5897304516E+14)
(PID.TID 0000.0001) 
(PID.TID 0000.0001) // =======================================================
(PID.TID 0000.0001) // Model configuration
(PID.TID 0000.0001) // =======================================================
(PID.TID 0000.0001) //
(PID.TID 0000.0001) // "Physical" paramters ( PARM01 in namelist )
(PID.TID 0000.0001) //
(PID.TID 0000.0001) buoyancyRelation = /* Type of relation to get Buoyancy */
(PID.TID 0000.0001)               'OCEANIC'
(PID.TID 0000.0001)     ;
(PID.TID 0000.0001) fluidIsAir   =  /* fluid major constituent is Air */
(PID.TID 0000.0001)                   F
(PID.TID 0000.0001)     ;
(PID.TID 0000.0001) fluidIsWater =  /* fluid major constituent is Water */
(PID.TID 0000.0001)                   T
(PID.TID 0000.0001)     ;
(PID.TID 0000.0001) usingPCoords =  /* use p (or p*) vertical coordinate */
(PID.TID 0000.0001)                   F
(PID.TID 0000.0001)     ;
(PID.TID 0000.0001) usingZCoords =  /* use z (or z*) vertical coordinate */
(PID.TID 0000.0001)                   T
(PID.TID 0000.0001)     ;
(PID.TID 0000.0001) tRef =   /* Reference temperature profile ( oC or K ) */
(PID.TID 0000.0001)     3 @  2.300000000000000E+01,             /* K =  1:  3 */
(PID.TID 0000.0001)     3 @  2.200000000000000E+01,             /* K =  4:  6 */
(PID.TID 0000.0001)                 2.100000000000000E+01,      /* K =  7 */
(PID.TID 0000.0001)     2 @  2.000000000000000E+01,             /* K =  8:  9 */
(PID.TID 0000.0001)                 1.900000000000000E+01,      /* K = 10 */
(PID.TID 0000.0001)     2 @  1.800000000000000E+01,             /* K = 11: 12 */
(PID.TID 0000.0001)                 1.700000000000000E+01,      /* K = 13 */
(PID.TID 0000.0001)     2 @  1.600000000000000E+01,             /* K = 14: 15 */
(PID.TID 0000.0001)                 1.500000000000000E+01,      /* K = 16 */
(PID.TID 0000.0001)                 1.400000000000000E+01,      /* K = 17 */
(PID.TID 0000.0001)                 1.300000000000000E+01,      /* K = 18 */
(PID.TID 0000.0001)                 1.200000000000000E+01,      /* K = 19 */
(PID.TID 0000.0001)                 1.100000000000000E+01,      /* K = 20 */
(PID.TID 0000.0001)     2 @  9.000000000000000E+00,             /* K = 21: 22 */
(PID.TID 0000.0001)                 8.000000000000000E+00,      /* K = 23 */
(PID.TID 0000.0001)                 7.000000000000000E+00,      /* K = 24 */
(PID.TID 0000.0001)     2 @  6.000000000000000E+00,             /* K = 25: 26 */
(PID.TID 0000.0001)     2 @  5.000000000000000E+00,             /* K = 27: 28 */
(PID.TID 0000.0001)     3 @  4.000000000000000E+00,             /* K = 29: 31 */
(PID.TID 0000.0001)     3 @  3.000000000000000E+00,             /* K = 32: 34 */
(PID.TID 0000.0001)     4 @  2.000000000000000E+00,             /* K = 35: 38 */
(PID.TID 0000.0001)    12 @  1.000000000000000E+00              /* K = 39: 50 */
(PID.TID 0000.0001)     ;
(PID.TID 0000.0001) sRef =   /* Reference salinity profile ( psu ) */
(PID.TID 0000.0001)    50 @  3.450000000000000E+01              /* K =  1: 50 */
(PID.TID 0000.0001)     ;
(PID.TID 0000.0001) useStrainTensionVisc= /* Use StrainTension Form of Viscous Operator */
(PID.TID 0000.0001)                   F
(PID.TID 0000.0001)     ;
(PID.TID 0000.0001) useVariableVisc = /* Use variable horizontal viscosity */
(PID.TID 0000.0001)                   T
(PID.TID 0000.0001)     ;
(PID.TID 0000.0001) useHarmonicVisc = /* Use harmonic horizontal viscosity */
(PID.TID 0000.0001)                   T
(PID.TID 0000.0001)     ;
(PID.TID 0000.0001) useBiharmonicVisc= /* Use biharmonic horiz.  viscosity */
(PID.TID 0000.0001)                   T
(PID.TID 0000.0001)     ;
(PID.TID 0000.0001) useSmag3D = /* Use isotropic 3-D Smagorinsky viscosity */
(PID.TID 0000.0001)                   F
(PID.TID 0000.0001)     ;
(PID.TID 0000.0001) viscAh  =   /* Lateral harmonic viscosity ( m^2/s ) */
(PID.TID 0000.0001)                 1.000000000000000E+00
(PID.TID 0000.0001)     ;
(PID.TID 0000.0001) viscAhMax = /* Maximum lateral harmonic viscosity ( m^2/s ) */
(PID.TID 0000.0001)                 1.000000000000000E+21
(PID.TID 0000.0001)     ;
(PID.TID 0000.0001) viscAhGrid = /* Grid dependent lateral harmonic viscosity ( non-dim. ) */
(PID.TID 0000.0001)                 1.000000000000000E-02
(PID.TID 0000.0001)     ;
(PID.TID 0000.0001) useFullLeith = /* Use Full Form of Leith Viscosity on/off flag*/
(PID.TID 0000.0001)                   F
(PID.TID 0000.0001)     ;
(PID.TID 0000.0001) useAreaViscLength = /* Use area for visc length instead of geom. mean*/
(PID.TID 0000.0001)                   T
(PID.TID 0000.0001)     ;
(PID.TID 0000.0001) viscC2leith = /* Leith harmonic visc. factor (on grad(vort),non-dim.) */
(PID.TID 0000.0001)                 0.000000000000000E+00
(PID.TID 0000.0001)     ;
(PID.TID 0000.0001) viscC2leithD = /* Leith harmonic viscosity factor (on grad(div),non-dim.)*/
(PID.TID 0000.0001)                 0.000000000000000E+00
(PID.TID 0000.0001)     ;
(PID.TID 0000.0001) viscC2smag = /* Smagorinsky harmonic viscosity factor (non-dim.) */
(PID.TID 0000.0001)                 0.000000000000000E+00
(PID.TID 0000.0001)     ;
(PID.TID 0000.0001) viscA4  =   /* Lateral biharmonic viscosity ( m^4/s ) */
(PID.TID 0000.0001)                 0.000000000000000E+00
(PID.TID 0000.0001)     ;
(PID.TID 0000.0001) viscA4Max = /* Maximum biharmonic viscosity ( m^2/s ) */
(PID.TID 0000.0001)                 1.000000000000000E+21
(PID.TID 0000.0001)     ;
(PID.TID 0000.0001) viscA4Grid = /* Grid dependent biharmonic viscosity ( non-dim. ) */
(PID.TID 0000.0001)                 0.000000000000000E+00
(PID.TID 0000.0001)     ;
(PID.TID 0000.0001) viscC4leith = /* Leith biharm viscosity factor (on grad(vort), non-dim.)*/
(PID.TID 0000.0001)                 1.500000000000000E+00
(PID.TID 0000.0001)     ;
(PID.TID 0000.0001) viscC4leithD = /* Leith biharm viscosity factor (on grad(div), non-dim.) */
(PID.TID 0000.0001)                 1.500000000000000E+00
(PID.TID 0000.0001)     ;
(PID.TID 0000.0001) viscC4Smag = /* Smagorinsky biharm viscosity factor (non-dim) */
(PID.TID 0000.0001)                 0.000000000000000E+00
(PID.TID 0000.0001)     ;
(PID.TID 0000.0001) no_slip_sides =  /* Viscous BCs: No-slip sides */
(PID.TID 0000.0001)                   T
(PID.TID 0000.0001)     ;
(PID.TID 0000.0001) sideDragFactor = /* side-drag scaling factor (non-dim) */
(PID.TID 0000.0001)                 2.000000000000000E+00
(PID.TID 0000.0001)     ;
(PID.TID 0000.0001) viscArNr = /* vertical profile of vertical viscosity ( m^2/s )*/
(PID.TID 0000.0001)    50 @  5.000000000000000E-05              /* K =  1: 50 */
(PID.TID 0000.0001)     ;
(PID.TID 0000.0001) no_slip_bottom =  /* Viscous BCs: No-slip bottom */
(PID.TID 0000.0001)                   T
(PID.TID 0000.0001)     ;
(PID.TID 0000.0001) bottomVisc_pCell = /* Partial-cell in bottom Visc. BC */
(PID.TID 0000.0001)                   F
(PID.TID 0000.0001)     ;
(PID.TID 0000.0001) bottomDragLinear = /* linear bottom-drag coefficient ( m/s ) */
(PID.TID 0000.0001)                 0.000000000000000E+00
(PID.TID 0000.0001)     ;
(PID.TID 0000.0001) bottomDragQuadratic = /* quadratic bottom-drag coefficient (-) */
(PID.TID 0000.0001)                 1.000000000000000E-03
(PID.TID 0000.0001)     ;
(PID.TID 0000.0001) selectBotDragQuadr = /* select quadratic bottom drag options */
(PID.TID 0000.0001)                       0
(PID.TID 0000.0001)     ;
(PID.TID 0000.0001) diffKhT =   /* Laplacian diffusion of heat laterally ( m^2/s ) */
(PID.TID 0000.0001)                 1.000000000000000E+01
(PID.TID 0000.0001)     ;
(PID.TID 0000.0001) diffK4T =   /* Biharmonic diffusion of heat laterally ( m^4/s ) */
(PID.TID 0000.0001)                 0.000000000000000E+00
(PID.TID 0000.0001)     ;
(PID.TID 0000.0001) diffKhS =   /* Laplacian diffusion of salt laterally ( m^2/s ) */
(PID.TID 0000.0001)                 1.000000000000000E+01
(PID.TID 0000.0001)     ;
(PID.TID 0000.0001) diffK4S =   /* Biharmonic diffusion of salt laterally ( m^4/s ) */
(PID.TID 0000.0001)                 0.000000000000000E+00
(PID.TID 0000.0001)     ;
(PID.TID 0000.0001) diffKrNrT = /* vertical profile of vertical diffusion of Temp ( m^2/s )*/
(PID.TID 0000.0001)    50 @  1.000000000000000E-05              /* K =  1: 50 */
(PID.TID 0000.0001)     ;
(PID.TID 0000.0001) diffKrNrS = /* vertical profile of vertical diffusion of Salt ( m^2/s )*/
(PID.TID 0000.0001)    50 @  1.000000000000000E-05              /* K =  1: 50 */
(PID.TID 0000.0001)     ;
(PID.TID 0000.0001) diffKrBL79surf = /* Surface diffusion for Bryan and Lewis 79 ( m^2/s ) */
(PID.TID 0000.0001)                 0.000000000000000E+00
(PID.TID 0000.0001)     ;
(PID.TID 0000.0001) diffKrBL79deep = /* Deep diffusion for Bryan and Lewis 1979 ( m^2/s ) */
(PID.TID 0000.0001)                 0.000000000000000E+00
(PID.TID 0000.0001)     ;
(PID.TID 0000.0001) diffKrBL79scl = /* Depth scale for Bryan and Lewis 1979 ( m ) */
(PID.TID 0000.0001)                 2.000000000000000E+02
(PID.TID 0000.0001)     ;
(PID.TID 0000.0001) diffKrBL79Ho = /* Turning depth for Bryan and Lewis 1979 ( m ) */
(PID.TID 0000.0001)                -2.000000000000000E+03
(PID.TID 0000.0001)     ;
(PID.TID 0000.0001) ivdc_kappa = /* Implicit Vertical Diffusivity for Convection ( m^2/s) */
(PID.TID 0000.0001)                 1.000000000000000E+01
(PID.TID 0000.0001)     ;
(PID.TID 0000.0001) hMixCriteria=  /* Criteria for mixed-layer diagnostic */
(PID.TID 0000.0001)                -8.000000000000000E-01
(PID.TID 0000.0001)     ;
(PID.TID 0000.0001) dRhoSmall =  /* Parameter for mixed-layer diagnostic */
(PID.TID 0000.0001)                 1.000000000000000E-06
(PID.TID 0000.0001)     ;
(PID.TID 0000.0001) hMixSmooth=  /* Smoothing parameter for mixed-layer diagnostic */
(PID.TID 0000.0001)                 0.000000000000000E+00
(PID.TID 0000.0001)     ;
(PID.TID 0000.0001) eosType =  /* Type of Equation of State */
(PID.TID 0000.0001)               'JMD95Z'
(PID.TID 0000.0001)     ;
(PID.TID 0000.0001) selectP_inEOS_Zc = /* select pressure to use in EOS (0,1,2,3) */
(PID.TID 0000.0001)                       0
(PID.TID 0000.0001)     0= -g*rhoConst*z ; 1= pRef (from tRef,sRef); 2= Hyd P ; 3= Hyd+NH P
(PID.TID 0000.0001)     ;
(PID.TID 0000.0001) HeatCapacity_Cp =  /* Specific heat capacity ( J/kg/K ) */
(PID.TID 0000.0001)                 3.994000000000000E+03
(PID.TID 0000.0001)     ;
(PID.TID 0000.0001) celsius2K = /* 0 degree Celsius converted to Kelvin ( K ) */
(PID.TID 0000.0001)                 2.731500000000000E+02
(PID.TID 0000.0001)     ;
(PID.TID 0000.0001) rhoConst  = /* Reference density (Boussinesq)  ( kg/m^3 ) */
(PID.TID 0000.0001)                 1.029000000000000E+03
(PID.TID 0000.0001)     ;
(PID.TID 0000.0001) rhoFacC = /* normalized Reference density @ cell-Center (-) */
(PID.TID 0000.0001)    50 @  1.000000000000000E+00              /* K =  1: 50 */
(PID.TID 0000.0001)     ;
(PID.TID 0000.0001) rhoFacF = /* normalized Reference density @ W-Interface (-) */
(PID.TID 0000.0001)    51 @  1.000000000000000E+00              /* K =  1: 51 */
(PID.TID 0000.0001)     ;
(PID.TID 0000.0001) rhoConstFresh = /* Fresh-water reference density ( kg/m^3 ) */
(PID.TID 0000.0001)                 1.000000000000000E+03
(PID.TID 0000.0001)     ;
(PID.TID 0000.0001) gravity =   /* Gravitational acceleration ( m/s^2 ) */
(PID.TID 0000.0001)                 9.810000000000000E+00
(PID.TID 0000.0001)     ;
(PID.TID 0000.0001) gBaro =   /* Barotropic gravity ( m/s^2 ) */
(PID.TID 0000.0001)                 9.810000000000000E+00
(PID.TID 0000.0001)     ;
(PID.TID 0000.0001) gravFacC = /* gravity factor (vs surf.) @ cell-Center (-) */
(PID.TID 0000.0001)    50 @  1.000000000000000E+00              /* K =  1: 50 */
(PID.TID 0000.0001)     ;
(PID.TID 0000.0001) gravFacF = /* gravity factor (vs surf.) @ W-Interface (-) */
(PID.TID 0000.0001)    51 @  1.000000000000000E+00              /* K =  1: 51 */
(PID.TID 0000.0001)     ;
(PID.TID 0000.0001) rotationPeriod =   /* Rotation Period ( s ) */
(PID.TID 0000.0001)                 8.616400000000000E+04
(PID.TID 0000.0001)     ;
(PID.TID 0000.0001) omega =   /* Angular velocity ( rad/s ) */
(PID.TID 0000.0001)                 7.292123516990375E-05
(PID.TID 0000.0001)     ;
(PID.TID 0000.0001) f0 =   /* Reference coriolis parameter ( 1/s ) */
(PID.TID 0000.0001)                 1.000000000000000E-04
(PID.TID 0000.0001)     ;
(PID.TID 0000.0001) beta =   /* Beta ( 1/(m.s) ) */
(PID.TID 0000.0001)                 9.999999999999999E-12
(PID.TID 0000.0001)     ;
(PID.TID 0000.0001) fPrime =   /* Second coriolis parameter ( 1/s ) */
(PID.TID 0000.0001)                 0.000000000000000E+00
(PID.TID 0000.0001)     ;
(PID.TID 0000.0001) rigidLid =   /* Rigid lid on/off flag */
(PID.TID 0000.0001)                   F
(PID.TID 0000.0001)     ;
(PID.TID 0000.0001) implicitFreeSurface =   /* Implicit free surface on/off flag */
(PID.TID 0000.0001)                   T
(PID.TID 0000.0001)     ;
(PID.TID 0000.0001) freeSurfFac =   /* Implicit free surface factor */
(PID.TID 0000.0001)                 1.000000000000000E+00
(PID.TID 0000.0001)     ;
(PID.TID 0000.0001) implicSurfPress =  /* Surface Pressure implicit factor (0-1)*/
(PID.TID 0000.0001)                 1.000000000000000E+00
(PID.TID 0000.0001)     ;
(PID.TID 0000.0001) implicDiv2DFlow =  /* Barot. Flow Div. implicit factor (0-1)*/
(PID.TID 0000.0001)                 1.000000000000000E+00
(PID.TID 0000.0001)     ;
(PID.TID 0000.0001) uniformLin_PhiSurf = /* use uniform Bo_surf on/off flag*/
(PID.TID 0000.0001)                   T
(PID.TID 0000.0001)     ;
(PID.TID 0000.0001) uniformFreeSurfLev = /* free-surface level-index is uniform */
(PID.TID 0000.0001)                   T
(PID.TID 0000.0001)     ;
(PID.TID 0000.0001) hFacMin =   /* minimum partial cell factor (hFac) */
(PID.TID 0000.0001)                 3.000000000000000E-01
(PID.TID 0000.0001)     ;
(PID.TID 0000.0001) hFacMinDr = /* minimum partial cell thickness ( m) */
(PID.TID 0000.0001)                 5.000000000000000E+01
(PID.TID 0000.0001)     ;
(PID.TID 0000.0001) exactConserv =  /* Exact Volume Conservation on/off flag*/
(PID.TID 0000.0001)                   T
(PID.TID 0000.0001)     ;
(PID.TID 0000.0001) linFSConserveTr = /* Tracer correction for Lin Free Surface on/off flag*/
(PID.TID 0000.0001)                   F
(PID.TID 0000.0001)     ;
(PID.TID 0000.0001) nonlinFreeSurf = /* Non-linear Free Surf. options (-1,0,1,2,3)*/
(PID.TID 0000.0001)                       4
(PID.TID 0000.0001)      -1,0= Off ; 1,2,3= On, 2=+rescale gU,gV, 3=+update cg2d solv.
(PID.TID 0000.0001)     ;
(PID.TID 0000.0001) hFacInf =   /* lower threshold for hFac (nonlinFreeSurf only)*/
(PID.TID 0000.0001)                 1.000000000000000E-01
(PID.TID 0000.0001)     ;
(PID.TID 0000.0001) hFacSup =   /* upper threshold for hFac (nonlinFreeSurf only)*/
(PID.TID 0000.0001)                 5.000000000000000E+00
(PID.TID 0000.0001)     ;
(PID.TID 0000.0001) select_rStar = /* r* Vertical coord. options (=0 r coord.; >0 uses r*)*/
(PID.TID 0000.0001)                       2
(PID.TID 0000.0001)     ;
(PID.TID 0000.0001) useRealFreshWaterFlux = /* Real Fresh Water Flux on/off flag*/
(PID.TID 0000.0001)                   T
(PID.TID 0000.0001)     ;
(PID.TID 0000.0001) temp_EvPrRn = /* Temp. of Evap/Prec/R (UNSET=use local T)(oC)*/
(PID.TID 0000.0001)                 1.234567000000000E+05
(PID.TID 0000.0001)     ;
(PID.TID 0000.0001) salt_EvPrRn = /* Salin. of Evap/Prec/R (UNSET=use local S)(psu)*/
(PID.TID 0000.0001)                 0.000000000000000E+00
(PID.TID 0000.0001)     ;
(PID.TID 0000.0001) selectAddFluid = /* option for mass source/sink of fluid (=0: off) */
(PID.TID 0000.0001)                       0
(PID.TID 0000.0001)     ;
(PID.TID 0000.0001) temp_addMass = /* Temp. of addMass array (UNSET=use local T)(oC)*/
(PID.TID 0000.0001)                 1.234567000000000E+05
(PID.TID 0000.0001)     ;
(PID.TID 0000.0001) salt_addMass = /* Salin. of addMass array (UNSET=use local S)(psu)*/
(PID.TID 0000.0001)                 0.000000000000000E+00
(PID.TID 0000.0001)     ;
(PID.TID 0000.0001) use3Dsolver = /* use 3-D pressure solver on/off flag */
(PID.TID 0000.0001)                   F
(PID.TID 0000.0001)     ;
(PID.TID 0000.0001) nonHydrostatic =  /* Non-Hydrostatic on/off flag */
(PID.TID 0000.0001)                   F
(PID.TID 0000.0001)     ;
(PID.TID 0000.0001) nh_Am2 = /* Non-Hydrostatic terms scaling factor */
(PID.TID 0000.0001)                 1.000000000000000E+00
(PID.TID 0000.0001)     ;
(PID.TID 0000.0001) implicitNHPress = /* Non-Hyd Pressure implicit factor (0-1)*/
(PID.TID 0000.0001)                 1.000000000000000E+00
(PID.TID 0000.0001)     ;
(PID.TID 0000.0001) selectNHfreeSurf = /* Non-Hyd (free-)Surface option */
(PID.TID 0000.0001)                       0
(PID.TID 0000.0001)     ;
(PID.TID 0000.0001) quasiHydrostatic = /* Quasi-Hydrostatic on/off flag */
(PID.TID 0000.0001)                   F
(PID.TID 0000.0001)     ;
(PID.TID 0000.0001) calc_wVelocity = /* vertical velocity calculation on/off flag */
(PID.TID 0000.0001)                   T
(PID.TID 0000.0001)     ;
(PID.TID 0000.0001) momStepping =  /* Momentum equation on/off flag */
(PID.TID 0000.0001)                   T
(PID.TID 0000.0001)     ;
(PID.TID 0000.0001) vectorInvariantMomentum= /* Vector-Invariant Momentum on/off */
(PID.TID 0000.0001)                   T
(PID.TID 0000.0001)     ;
(PID.TID 0000.0001) momAdvection =  /* Momentum advection on/off flag */
(PID.TID 0000.0001)                   T
(PID.TID 0000.0001)     ;
(PID.TID 0000.0001) momViscosity =  /* Momentum viscosity on/off flag */
(PID.TID 0000.0001)                   T
(PID.TID 0000.0001)     ;
(PID.TID 0000.0001) momImplVertAdv= /* Momentum implicit vert. advection on/off*/
(PID.TID 0000.0001)                   F
(PID.TID 0000.0001)     ;
(PID.TID 0000.0001) implicitViscosity = /* Implicit viscosity on/off flag */
(PID.TID 0000.0001)                   T
(PID.TID 0000.0001)     ;
(PID.TID 0000.0001) selectImplicitDrag= /* Implicit bot Drag options (0,1,2)*/
(PID.TID 0000.0001)                       0
(PID.TID 0000.0001)     0= Expl. ; 1= Impl. on provis. Vel ; 2= Fully Impl (with surf.P)
(PID.TID 0000.0001)     ;
(PID.TID 0000.0001) metricTerms =  /* metric-Terms on/off flag */
(PID.TID 0000.0001)                   F
(PID.TID 0000.0001)     ;
(PID.TID 0000.0001) useNHMTerms = /* Non-Hydrostatic Metric-Terms on/off */
(PID.TID 0000.0001)                   F
(PID.TID 0000.0001)     ;
(PID.TID 0000.0001) selectCoriMap = /* Coriolis Map options (0,1,2,3)*/
(PID.TID 0000.0001)                       2
(PID.TID 0000.0001)     0= f-Plane ; 1= Beta-Plane ; 2= Spherical ; 3= read from file
(PID.TID 0000.0001)     ;
(PID.TID 0000.0001) use3dCoriolis = /* 3-D Coriolis on/off flag */
(PID.TID 0000.0001)                   F
(PID.TID 0000.0001)     ;
(PID.TID 0000.0001) useCoriolis =  /* Coriolis on/off flag */
(PID.TID 0000.0001)                   T
(PID.TID 0000.0001)     ;
(PID.TID 0000.0001) useCDscheme =  /* CD scheme on/off flag */
(PID.TID 0000.0001)                   F
(PID.TID 0000.0001)     ;
(PID.TID 0000.0001) useEnergyConservingCoriolis= /* Flx-Form Coriolis scheme flag */
(PID.TID 0000.0001)                   F
(PID.TID 0000.0001)     ;
(PID.TID 0000.0001) useJamartWetPoints= /* Coriolis WetPoints method flag */
(PID.TID 0000.0001)                   T
(PID.TID 0000.0001)     ;
(PID.TID 0000.0001) useJamartMomAdv= /* V.I Non-linear terms Jamart flag */
(PID.TID 0000.0001)                   F
(PID.TID 0000.0001)     ;
(PID.TID 0000.0001) useAbsVorticity= /* V.I Works with f+zeta in Coriolis */
(PID.TID 0000.0001)                   F
(PID.TID 0000.0001)     ;
(PID.TID 0000.0001) selectVortScheme= /* V.I Scheme selector for Vorticity-Term */
(PID.TID 0000.0001)                       1
(PID.TID 0000.0001)    = 0 : enstrophy (Shallow-Water Eq.) conserving scheme by Sadourny, JAS 75
(PID.TID 0000.0001)    = 1 : same as 0 with modified hFac
(PID.TID 0000.0001)    = 2 : energy conserving scheme (used by Sadourny in JAS 75 paper)
(PID.TID 0000.0001)    = 3 : energy (general) and enstrophy (2D, nonDiv.) conserving scheme
(PID.TID 0000.0001)          from Sadourny (Burridge & Haseler, ECMWF Rep.4, 1977)
(PID.TID 0000.0001)     ;
(PID.TID 0000.0001) upwindVorticity= /* V.I Upwind bias vorticity flag */
(PID.TID 0000.0001)                   F
(PID.TID 0000.0001)     ;
(PID.TID 0000.0001) highOrderVorticity= /* V.I High order vort. advect. flag */
(PID.TID 0000.0001)                   F
(PID.TID 0000.0001)     ;
(PID.TID 0000.0001) upwindShear= /* V.I Upwind vertical Shear advection flag */
(PID.TID 0000.0001)                   F
(PID.TID 0000.0001)     ;
(PID.TID 0000.0001) selectKEscheme= /* V.I Kinetic Energy scheme selector */
(PID.TID 0000.0001)                       0
(PID.TID 0000.0001)     ;
(PID.TID 0000.0001) momForcing =  /* Momentum forcing on/off flag */
(PID.TID 0000.0001)                   T
(PID.TID 0000.0001)     ;
(PID.TID 0000.0001) momTidalForcing = /* Momentum Tidal forcing on/off flag */
(PID.TID 0000.0001)                   T
(PID.TID 0000.0001)     ;
(PID.TID 0000.0001) momPressureForcing =  /* Momentum pressure term on/off flag */
(PID.TID 0000.0001)                   T
(PID.TID 0000.0001)     ;
(PID.TID 0000.0001) implicitIntGravWave= /* Implicit Internal Gravity Wave flag */
(PID.TID 0000.0001)                   F
(PID.TID 0000.0001)     ;
(PID.TID 0000.0001) staggerTimeStep =    /* Stagger time stepping on/off flag */
(PID.TID 0000.0001)                   T
(PID.TID 0000.0001)     ;
(PID.TID 0000.0001) doResetHFactors = /* reset thickness factors @ each time-step */
(PID.TID 0000.0001)                   F
(PID.TID 0000.0001)     ;
(PID.TID 0000.0001) multiDimAdvection =  /* enable/disable Multi-Dim Advection */
(PID.TID 0000.0001)                   T
(PID.TID 0000.0001)     ;
(PID.TID 0000.0001) useMultiDimAdvec =   /* Multi-Dim Advection is/is-not used */
(PID.TID 0000.0001)                   T
(PID.TID 0000.0001)     ;
(PID.TID 0000.0001) implicitDiffusion = /* Implicit Diffusion on/off flag */
(PID.TID 0000.0001)                   T
(PID.TID 0000.0001)     ;
(PID.TID 0000.0001) tempStepping =  /* Temperature equation on/off flag */
(PID.TID 0000.0001)                   T
(PID.TID 0000.0001)     ;
(PID.TID 0000.0001) tempAdvection = /* Temperature advection on/off flag */
(PID.TID 0000.0001)                   T
(PID.TID 0000.0001)     ;
(PID.TID 0000.0001) tempImplVertAdv = /* Temp. implicit vert. advection on/off */
(PID.TID 0000.0001)                   T
(PID.TID 0000.0001)     ;
(PID.TID 0000.0001) tempForcing  =  /* Temperature forcing on/off flag */
(PID.TID 0000.0001)                   T
(PID.TID 0000.0001)     ;
(PID.TID 0000.0001) balanceQnet  =  /* balance net heat-flux on/off flag */
(PID.TID 0000.0001)                   F
(PID.TID 0000.0001)     ;
(PID.TID 0000.0001) doThetaClimRelax = /* apply SST relaxation on/off flag */
(PID.TID 0000.0001)                   F
(PID.TID 0000.0001)     ;
(PID.TID 0000.0001) balanceThetaClimRelax= /* balance SST relaxation on/off flag */
(PID.TID 0000.0001)                   F
(PID.TID 0000.0001)     ;
(PID.TID 0000.0001) tempIsActiveTr = /* Temp. is a dynamically Active Tracer */
(PID.TID 0000.0001)                   T
(PID.TID 0000.0001)     ;
(PID.TID 0000.0001) saltStepping =  /* Salinity equation on/off flag */
(PID.TID 0000.0001)                   T
(PID.TID 0000.0001)     ;
(PID.TID 0000.0001) saltAdvection = /* Salinity advection on/off flag */
(PID.TID 0000.0001)                   T
(PID.TID 0000.0001)     ;
(PID.TID 0000.0001) saltImplVertAdv = /* Sali. implicit vert. advection on/off */
(PID.TID 0000.0001)                   T
(PID.TID 0000.0001)     ;
(PID.TID 0000.0001) saltForcing  =  /* Salinity forcing on/off flag */
(PID.TID 0000.0001)                   T
(PID.TID 0000.0001)     ;
(PID.TID 0000.0001) balanceEmPmR =  /* balance net fresh-water flux on/off flag */
(PID.TID 0000.0001)                   F
(PID.TID 0000.0001)     ;
(PID.TID 0000.0001) doSaltClimRelax = /* apply SSS relaxation on/off flag */
(PID.TID 0000.0001)                   F
(PID.TID 0000.0001)     ;
(PID.TID 0000.0001) balanceSaltClimRelax= /* balance SSS relaxation on/off flag */
(PID.TID 0000.0001)                   T
(PID.TID 0000.0001)     ;
(PID.TID 0000.0001) saltIsActiveTr = /* Salt  is a dynamically Active Tracer */
(PID.TID 0000.0001)                   T
(PID.TID 0000.0001)     ;
(PID.TID 0000.0001)  readBinaryPrec = /* Precision used for reading binary files */
(PID.TID 0000.0001)                      32
(PID.TID 0000.0001)     ;
(PID.TID 0000.0001) writeBinaryPrec = /* Precision used for writing binary files */
(PID.TID 0000.0001)                      32
(PID.TID 0000.0001)     ;
(PID.TID 0000.0001)  rwSuffixType =   /* select format of mds file suffix */
(PID.TID 0000.0001)                       0
(PID.TID 0000.0001)    = 0 : myIter (I10.10) ;   = 1 : 100*myTime (100th sec) ;
(PID.TID 0000.0001)    = 2 : myTime (seconds);   = 3 : myTime/360 (10th of hr);
(PID.TID 0000.0001)    = 4 : myTime/3600 (hours)
(PID.TID 0000.0001)     ;
(PID.TID 0000.0001)  globalFiles = /* write "global" (=not per tile) files */
(PID.TID 0000.0001)                   F
(PID.TID 0000.0001)     ;
(PID.TID 0000.0001)  useSingleCpuIO = /* only master MPI process does I/O */
(PID.TID 0000.0001)                   T
(PID.TID 0000.0001)     ;
(PID.TID 0000.0001)  useSingleCpuInput = /* only master process reads input */
(PID.TID 0000.0001)                   T
(PID.TID 0000.0001)     ;
(PID.TID 0000.0001) /* debLev[*]  : level of debug & auxiliary message printing */
(PID.TID 0000.0001) debLevZero =  0 ; /* level of disabled aux. msg printing */
(PID.TID 0000.0001)    debLevA =  1 ; /* level of minimum  aux. msg printing */
(PID.TID 0000.0001)    debLevB =  2 ; /* level of low aux. print (report read-file opening)*/
(PID.TID 0000.0001)    debLevC =  3 ; /* level of moderate debug prt (most pkgs debug msg) */
(PID.TID 0000.0001)    debLevD =  4 ; /* level of enhanced debug prt (add DEBUG_STATS prt) */
(PID.TID 0000.0001)    debLevE =  5 ; /* level of extensive debug printing */
(PID.TID 0000.0001) debugLevel =  /* select debug printing level */
(PID.TID 0000.0001)                       1
(PID.TID 0000.0001)     ;
(PID.TID 0000.0001)  plotLevel =  /* select PLOT_FIELD printing level */
(PID.TID 0000.0001)                       1
(PID.TID 0000.0001)     ;
(PID.TID 0000.0001) //
(PID.TID 0000.0001) // Elliptic solver(s) paramters ( PARM02 in namelist )
(PID.TID 0000.0001) //
(PID.TID 0000.0001) cg2dMaxIters =   /* Upper limit on 2d con. grad iterations  */
(PID.TID 0000.0001)                     300
(PID.TID 0000.0001)     ;
(PID.TID 0000.0001) cg2dChkResFreq =   /* 2d con. grad convergence test frequency */
(PID.TID 0000.0001)                       1
(PID.TID 0000.0001)     ;
(PID.TID 0000.0001) cg2dUseMinResSol= /* use cg2d last-iter(=0) / min-resid.(=1) solution */
(PID.TID 0000.0001)                       0
(PID.TID 0000.0001)     ;
(PID.TID 0000.0001) cg2dTargetResidual =   /* 2d con. grad target residual  */
(PID.TID 0000.0001)                 1.000000000000000E-07
(PID.TID 0000.0001)     ;
(PID.TID 0000.0001) cg2dTargetResWunit =   /* CG2d target residual [W units] */
(PID.TID 0000.0001)                 1.000000000000000E-12
(PID.TID 0000.0001)     ;
(PID.TID 0000.0001) cg2dPreCondFreq =   /* Freq. for updating cg2d preconditioner */
(PID.TID 0000.0001)                       1
(PID.TID 0000.0001)     ;
(PID.TID 0000.0001) useSRCGSolver =  /* use single reduction CG solver(s) */
(PID.TID 0000.0001)                   F
(PID.TID 0000.0001)     ;
(PID.TID 0000.0001) printResidualFreq = /* Freq. for printing CG residual */
(PID.TID 0000.0001)                       0
(PID.TID 0000.0001)     ;
(PID.TID 0000.0001) //
(PID.TID 0000.0001) // Time stepping paramters ( PARM03 in namelist )
(PID.TID 0000.0001) //
(PID.TID 0000.0001) deltaTMom =   /* Momentum equation timestep ( s ) */
(PID.TID 0000.0001)                 1.200000000000000E+03
(PID.TID 0000.0001)     ;
(PID.TID 0000.0001) deltaTFreeSurf = /* FreeSurface equation timestep ( s ) */
(PID.TID 0000.0001)                 1.200000000000000E+03
(PID.TID 0000.0001)     ;
(PID.TID 0000.0001) dTtracerLev =  /* Tracer equation timestep ( s ) */
(PID.TID 0000.0001)    50 @  1.200000000000000E+03              /* K =  1: 50 */
(PID.TID 0000.0001)     ;
(PID.TID 0000.0001) deltaTClock  =   /* Model clock timestep ( s ) */
(PID.TID 0000.0001)                 1.200000000000000E+03
(PID.TID 0000.0001)     ;
(PID.TID 0000.0001) cAdjFreq =   /* Convective adjustment interval ( s ) */
(PID.TID 0000.0001)                 0.000000000000000E+00
(PID.TID 0000.0001)     ;
(PID.TID 0000.0001) momForcingOutAB = /* =1: take Momentum Forcing out of Adams-Bash. stepping */
(PID.TID 0000.0001)                       1
(PID.TID 0000.0001)     ;
(PID.TID 0000.0001) tracForcingOutAB = /* =1: take T,S,pTr Forcing out of Adams-Bash. stepping */
(PID.TID 0000.0001)                       1
(PID.TID 0000.0001)     ;
(PID.TID 0000.0001) momDissip_In_AB = /* put Dissipation Tendency in Adams-Bash. stepping */
(PID.TID 0000.0001)                   F
(PID.TID 0000.0001)     ;
(PID.TID 0000.0001) doAB_onGtGs = /* apply AB on Tendencies (rather than on T,S)*/
(PID.TID 0000.0001)                   F
(PID.TID 0000.0001)     ;
(PID.TID 0000.0001) abEps =   /* Adams-Bashforth-2 stabilizing weight */
(PID.TID 0000.0001)                 1.000000000000000E-02
(PID.TID 0000.0001)     ;
(PID.TID 0000.0001) alph_AB =   /* Adams-Bashforth-3 primary factor */
(PID.TID 0000.0001)                 5.000000000000000E-01
(PID.TID 0000.0001)     ;
(PID.TID 0000.0001) beta_AB =   /* Adams-Bashforth-3 secondary factor */
(PID.TID 0000.0001)                 2.811050000000000E-01
(PID.TID 0000.0001)     ;
(PID.TID 0000.0001) startFromPickupAB2= /* start from AB-2 pickup */
(PID.TID 0000.0001)                   F
(PID.TID 0000.0001)     ;
(PID.TID 0000.0001) applyExchUV_early = /* Apply EXCH to U,V earlier in time-step */
(PID.TID 0000.0001)                   F
(PID.TID 0000.0001)     ;
(PID.TID 0000.0001) pickupStrictlyMatch= /* stop if pickup do not strictly match */
(PID.TID 0000.0001)                   F
(PID.TID 0000.0001)     ;
(PID.TID 0000.0001) nIter0   =   /* Run starting timestep number */
(PID.TID 0000.0001)                       1
(PID.TID 0000.0001)     ;
(PID.TID 0000.0001) nTimeSteps = /* Number of timesteps */
(PID.TID 0000.0001)                       4
(PID.TID 0000.0001)     ;
(PID.TID 0000.0001) nEndIter =   /* Run ending timestep number */
(PID.TID 0000.0001)                       5
(PID.TID 0000.0001)     ;
(PID.TID 0000.0001) baseTime =   /* Model base time ( s ) */
(PID.TID 0000.0001)                 0.000000000000000E+00
(PID.TID 0000.0001)     ;
(PID.TID 0000.0001) startTime =  /* Run start time ( s ) */
(PID.TID 0000.0001)                 1.200000000000000E+03
(PID.TID 0000.0001)     ;
(PID.TID 0000.0001) endTime  =   /* Integration ending time ( s ) */
(PID.TID 0000.0001)                 6.000000000000000E+03
(PID.TID 0000.0001)     ;
(PID.TID 0000.0001) pChkPtFreq = /* Permanent restart/pickup file interval ( s ) */
(PID.TID 0000.0001)                 3.153600000000000E+07
(PID.TID 0000.0001)     ;
(PID.TID 0000.0001) chkPtFreq  = /* Rolling restart/pickup file interval ( s ) */
(PID.TID 0000.0001)                 3.153600000000000E+07
(PID.TID 0000.0001)     ;
(PID.TID 0000.0001) pickup_write_mdsio =   /* Model IO flag. */
(PID.TID 0000.0001)                   T
(PID.TID 0000.0001)     ;
(PID.TID 0000.0001) pickup_read_mdsio =   /* Model IO flag. */
(PID.TID 0000.0001)                   T
(PID.TID 0000.0001)     ;
(PID.TID 0000.0001) writePickupAtEnd =   /* Model IO flag. */
(PID.TID 0000.0001)                   T
(PID.TID 0000.0001)     ;
(PID.TID 0000.0001) dumpFreq =   /* Model state write out interval ( s ). */
(PID.TID 0000.0001)                 0.000000000000000E+00
(PID.TID 0000.0001)     ;
(PID.TID 0000.0001) dumpInitAndLast= /* write out Initial & Last iter. model state */
(PID.TID 0000.0001)                   F
(PID.TID 0000.0001)     ;
(PID.TID 0000.0001) snapshot_mdsio =   /* Model IO flag. */
(PID.TID 0000.0001)                   T
(PID.TID 0000.0001)     ;
(PID.TID 0000.0001) monitorFreq =   /* Monitor output interval ( s ). */
(PID.TID 0000.0001)                 1.000000000000000E+00
(PID.TID 0000.0001)     ;
(PID.TID 0000.0001) monitorSelect = /* select group of variables to monitor */
(PID.TID 0000.0001)                       3
(PID.TID 0000.0001)     ;
(PID.TID 0000.0001) monitor_stdio =   /* Model IO flag. */
(PID.TID 0000.0001)                   T
(PID.TID 0000.0001)     ;
(PID.TID 0000.0001) externForcingPeriod =   /* forcing period (s) */
(PID.TID 0000.0001)                 0.000000000000000E+00
(PID.TID 0000.0001)     ;
(PID.TID 0000.0001) externForcingCycle =   /* period of the cyle (s). */
(PID.TID 0000.0001)                 0.000000000000000E+00
(PID.TID 0000.0001)     ;
(PID.TID 0000.0001) tauThetaClimRelax =   /* relaxation time scale (s) */
(PID.TID 0000.0001)                 0.000000000000000E+00
(PID.TID 0000.0001)     ;
(PID.TID 0000.0001) tauSaltClimRelax =   /* relaxation time scale (s) */
(PID.TID 0000.0001)                 0.000000000000000E+00
(PID.TID 0000.0001)     ;
(PID.TID 0000.0001) latBandClimRelax =   /* max. Lat. where relaxation */
(PID.TID 0000.0001)                 1.800000000000000E+02
(PID.TID 0000.0001)     ;
(PID.TID 0000.0001) //
(PID.TID 0000.0001) // Gridding paramters ( PARM04 in namelist )
(PID.TID 0000.0001) //
(PID.TID 0000.0001) usingCartesianGrid = /* Cartesian coordinates flag ( True/False ) */
(PID.TID 0000.0001)                   F
(PID.TID 0000.0001)     ;
(PID.TID 0000.0001) usingCylindricalGrid = /* Cylindrical coordinates flag ( True/False ) */
(PID.TID 0000.0001)                   F
(PID.TID 0000.0001)     ;
(PID.TID 0000.0001) usingSphericalPolarGrid = /* Spherical coordinates flag ( True/False ) */
(PID.TID 0000.0001)                   F
(PID.TID 0000.0001)     ;
(PID.TID 0000.0001) usingCurvilinearGrid = /* Curvilinear coordinates flag ( True/False ) */
(PID.TID 0000.0001)                   T
(PID.TID 0000.0001)     ;
(PID.TID 0000.0001) useMin4hFacEdges = /* set hFacW,S as minimum of adjacent hFacC factor */
(PID.TID 0000.0001)                   F
(PID.TID 0000.0001)     ;
(PID.TID 0000.0001) interViscAr_pCell = /* account for partial-cell in interior vert. viscosity */
(PID.TID 0000.0001)                   F
(PID.TID 0000.0001)     ;
(PID.TID 0000.0001) interDiffKr_pCell = /* account for partial-cell in interior vert. diffusion */
(PID.TID 0000.0001)                   F
(PID.TID 0000.0001)     ;
(PID.TID 0000.0001) pCellMix_select = /* option to enhance mixing near surface & bottom */
(PID.TID 0000.0001)                       0
(PID.TID 0000.0001)     ;
(PID.TID 0000.0001) selectSigmaCoord = /* Hybrid-Sigma Vert. Coordinate option */
(PID.TID 0000.0001)                       0
(PID.TID 0000.0001)     ;
(PID.TID 0000.0001) rSigmaBnd = /* r/sigma transition ( units of r ==  m ) */
(PID.TID 0000.0001)                 1.234567000000000E+05
(PID.TID 0000.0001)     ;
(PID.TID 0000.0001) rkSign =   /* index orientation relative to vertical coordinate */
(PID.TID 0000.0001)                -1.000000000000000E+00
(PID.TID 0000.0001)     ;
(PID.TID 0000.0001) gravitySign = /* gravity orientation relative to vertical coordinate */
(PID.TID 0000.0001)                -1.000000000000000E+00
(PID.TID 0000.0001)     ;
(PID.TID 0000.0001) seaLev_Z =  /* reference height of sea-level [m] */
(PID.TID 0000.0001)                 0.000000000000000E+00
(PID.TID 0000.0001)     ;
(PID.TID 0000.0001) top_Pres =  /* reference pressure at the top [Pa] */
(PID.TID 0000.0001)                 0.000000000000000E+00
(PID.TID 0000.0001)     ;
(PID.TID 0000.0001) mass2rUnit = /* convert mass per unit area [kg/m2] to r-units [m] */
(PID.TID 0000.0001)                 9.718172983479105E-04
(PID.TID 0000.0001)     ;
(PID.TID 0000.0001) rUnit2mass = /* convert r-units [m] to mass per unit area [kg/m2] */
(PID.TID 0000.0001)                 1.029000000000000E+03
(PID.TID 0000.0001)     ;
(PID.TID 0000.0001) drC =   /* C spacing ( units of r ) */
(PID.TID 0000.0001)                 5.000000000000000E+00,      /* K =  1 */
(PID.TID 0000.0001)     6 @  1.000000000000000E+01,             /* K =  2:  7 */
(PID.TID 0000.0001)                 1.000500000000000E+01,      /* K =  8 */
(PID.TID 0000.0001)                 1.002000000000000E+01,      /* K =  9 */
(PID.TID 0000.0001)                 1.007000000000000E+01,      /* K = 10 */
(PID.TID 0000.0001)                 1.021500000000000E+01,      /* K = 11 */
(PID.TID 0000.0001)                 1.056000000000000E+01,      /* K = 12 */
(PID.TID 0000.0001)                 1.128000000000000E+01,      /* K = 13 */
(PID.TID 0000.0001)                 1.259000000000000E+01,      /* K = 14 */
(PID.TID 0000.0001)                 1.473000000000000E+01,      /* K = 15 */
(PID.TID 0000.0001)                 1.793000000000000E+01,      /* K = 16 */
(PID.TID 0000.0001)                 2.233500000000000E+01,      /* K = 17 */
(PID.TID 0000.0001)                 2.797500000000000E+01,      /* K = 18 */
(PID.TID 0000.0001)                 3.476000000000001E+01,      /* K = 19 */
(PID.TID 0000.0001)                 4.246000000000000E+01,      /* K = 20 */
(PID.TID 0000.0001)                 5.075000000000000E+01,      /* K = 21 */
(PID.TID 0000.0001)                 5.925000000000000E+01,      /* K = 22 */
(PID.TID 0000.0001)                 6.753999999999999E+01,      /* K = 23 */
(PID.TID 0000.0001)                 7.524000000000001E+01,      /* K = 24 */
(PID.TID 0000.0001)                 8.202500000000001E+01,      /* K = 25 */
(PID.TID 0000.0001)                 8.766500000000001E+01,      /* K = 26 */
(PID.TID 0000.0001)                 9.206999999999999E+01,      /* K = 27 */
(PID.TID 0000.0001)                 9.527000000000000E+01,      /* K = 28 */
(PID.TID 0000.0001)                 9.741499999999999E+01,      /* K = 29 */
(PID.TID 0000.0001)                 9.875000000000000E+01,      /* K = 30 */
(PID.TID 0000.0001)                 9.963000000000000E+01,      /* K = 31 */
(PID.TID 0000.0001)                 1.006700000000000E+02,      /* K = 32 */
(PID.TID 0000.0001)                 1.029450000000000E+02,      /* K = 33 */
(PID.TID 0000.0001)                 1.079450000000000E+02,      /* K = 34 */
(PID.TID 0000.0001)                 1.170800000000000E+02,      /* K = 35 */
(PID.TID 0000.0001)                 1.309600000000000E+02,      /* K = 36 */
(PID.TID 0000.0001)                 1.490150000000000E+02,      /* K = 37 */
(PID.TID 0000.0001)                 1.698850000000000E+02,      /* K = 38 */
(PID.TID 0000.0001)                 1.921900000000000E+02,      /* K = 39 */
(PID.TID 0000.0001)                 2.150250000000000E+02,      /* K = 40 */
(PID.TID 0000.0001)                 2.380000000000000E+02,      /* K = 41 */
(PID.TID 0000.0001)                 2.610000000000000E+02,      /* K = 42 */
(PID.TID 0000.0001)                 2.840000000000000E+02,      /* K = 43 */
(PID.TID 0000.0001)                 3.070000000000000E+02,      /* K = 44 */
(PID.TID 0000.0001)                 3.300000000000000E+02,      /* K = 45 */
(PID.TID 0000.0001)                 3.530000000000000E+02,      /* K = 46 */
(PID.TID 0000.0001)                 3.760000000000000E+02,      /* K = 47 */
(PID.TID 0000.0001)                 3.990000000000000E+02,      /* K = 48 */
(PID.TID 0000.0001)                 4.220000000000000E+02,      /* K = 49 */
(PID.TID 0000.0001)                 4.450000000000000E+02,      /* K = 50 */
(PID.TID 0000.0001)                 2.282500000000000E+02       /* K = 51 */
(PID.TID 0000.0001)     ;
(PID.TID 0000.0001) drF =   /* W spacing ( units of r ) */
(PID.TID 0000.0001)     7 @  1.000000000000000E+01,             /* K =  1:  7 */
(PID.TID 0000.0001)                 1.001000000000000E+01,      /* K =  8 */
(PID.TID 0000.0001)                 1.003000000000000E+01,      /* K =  9 */
(PID.TID 0000.0001)                 1.011000000000000E+01,      /* K = 10 */
(PID.TID 0000.0001)                 1.032000000000000E+01,      /* K = 11 */
(PID.TID 0000.0001)                 1.080000000000000E+01,      /* K = 12 */
(PID.TID 0000.0001)                 1.176000000000000E+01,      /* K = 13 */
(PID.TID 0000.0001)                 1.342000000000000E+01,      /* K = 14 */
(PID.TID 0000.0001)                 1.604000000000000E+01,      /* K = 15 */
(PID.TID 0000.0001)                 1.982000000000000E+01,      /* K = 16 */
(PID.TID 0000.0001)                 2.485000000000000E+01,      /* K = 17 */
(PID.TID 0000.0001)                 3.110000000000000E+01,      /* K = 18 */
(PID.TID 0000.0001)                 3.842000000000000E+01,      /* K = 19 */
(PID.TID 0000.0001)                 4.650000000000000E+01,      /* K = 20 */
(PID.TID 0000.0001)                 5.500000000000000E+01,      /* K = 21 */
(PID.TID 0000.0001)                 6.350000000000000E+01,      /* K = 22 */
(PID.TID 0000.0001)                 7.158000000000000E+01,      /* K = 23 */
(PID.TID 0000.0001)                 7.890000000000001E+01,      /* K = 24 */
(PID.TID 0000.0001)                 8.515000000000001E+01,      /* K = 25 */
(PID.TID 0000.0001)                 9.018000000000001E+01,      /* K = 26 */
(PID.TID 0000.0001)                 9.395999999999999E+01,      /* K = 27 */
(PID.TID 0000.0001)                 9.658000000000000E+01,      /* K = 28 */
(PID.TID 0000.0001)                 9.825000000000000E+01,      /* K = 29 */
(PID.TID 0000.0001)                 9.925000000000000E+01,      /* K = 30 */
(PID.TID 0000.0001)                 1.000100000000000E+02,      /* K = 31 */
(PID.TID 0000.0001)                 1.013300000000000E+02,      /* K = 32 */
(PID.TID 0000.0001)                 1.045600000000000E+02,      /* K = 33 */
(PID.TID 0000.0001)                 1.113300000000000E+02,      /* K = 34 */
(PID.TID 0000.0001)                 1.228300000000000E+02,      /* K = 35 */
(PID.TID 0000.0001)                 1.390900000000000E+02,      /* K = 36 */
(PID.TID 0000.0001)                 1.589400000000000E+02,      /* K = 37 */
(PID.TID 0000.0001)                 1.808300000000000E+02,      /* K = 38 */
(PID.TID 0000.0001)                 2.035500000000000E+02,      /* K = 39 */
(PID.TID 0000.0001)                 2.265000000000000E+02,      /* K = 40 */
(PID.TID 0000.0001)                 2.495000000000000E+02,      /* K = 41 */
(PID.TID 0000.0001)                 2.725000000000000E+02,      /* K = 42 */
(PID.TID 0000.0001)                 2.955000000000000E+02,      /* K = 43 */
(PID.TID 0000.0001)                 3.185000000000000E+02,      /* K = 44 */
(PID.TID 0000.0001)                 3.415000000000000E+02,      /* K = 45 */
(PID.TID 0000.0001)                 3.645000000000000E+02,      /* K = 46 */
(PID.TID 0000.0001)                 3.875000000000000E+02,      /* K = 47 */
(PID.TID 0000.0001)                 4.105000000000000E+02,      /* K = 48 */
(PID.TID 0000.0001)                 4.335000000000000E+02,      /* K = 49 */
(PID.TID 0000.0001)                 4.565000000000000E+02       /* K = 50 */
(PID.TID 0000.0001)     ;
(PID.TID 0000.0001) radius_fromHorizGrid = /* sphere Radius of input horiz. grid */
(PID.TID 0000.0001)                 6.370000000000000E+06
(PID.TID 0000.0001)     ;
(PID.TID 0000.0001) rSphere =  /* Radius ( ignored - cartesian, m - spherical ) */
(PID.TID 0000.0001)                 6.370000000000000E+06
(PID.TID 0000.0001)     ;
(PID.TID 0000.0001) deepAtmosphere = /* Deep/Shallow Atmosphere flag (True/False) */
(PID.TID 0000.0001)                   F
(PID.TID 0000.0001)     ;
(PID.TID 0000.0001) xC =  /* xC(:,1,:,1) : P-point X coord ( deg. or m if cartesian) */
(PID.TID 0000.0001)                -4.134333652066944E+01,      /* I =  1 */
(PID.TID 0000.0001)                -4.092739631822215E+01,      /* I =  2 */
(PID.TID 0000.0001)                -4.051080379714500E+01,      /* I =  3 */
(PID.TID 0000.0001)                -4.009357330524382E+01,      /* I =  4 */
(PID.TID 0000.0001)                -3.967571941845799E+01,      /* I =  5 */
(PID.TID 0000.0001)                -3.925725693697606E+01,      /* I =  6 */
(PID.TID 0000.0001)                -3.883820088130086E+01,      /* I =  7 */
(PID.TID 0000.0001)                -3.841856648811250E+01,      /* I =  8 */
(PID.TID 0000.0001)                -3.799836920599067E+01,      /* I =  9 */
(PID.TID 0000.0001)                -3.757762469073774E+01,      /* I = 10 */
(PID.TID 0000.0001)                -3.715634880096906E+01,      /* I = 11 */
(PID.TID 0000.0001)                -3.673455759306046E+01,      /* I = 12 */
(PID.TID 0000.0001)                -3.631226731630318E+01,      /* I = 13 */
(PID.TID 0000.0001)                -3.588949440756015E+01,      /* I = 14 */
(PID.TID 0000.0001)                -3.546625548623304E+01,      /* I = 15 */
(PID.TID 0000.0001)                -3.504256734857472E+01,      /* I = 16 */
(PID.TID 0000.0001)                -3.461844696209367E+01,      /* I = 17 */
(PID.TID 0000.0001)                -3.419391145982100E+01,      /* I = 18 */
(PID.TID 0000.0001)                -3.376897813441417E+01,      /* I = 19 */
(PID.TID 0000.0001)                -3.334366443208621E+01,      /* I = 20 */
(PID.TID 0000.0001)                -3.291798794636831E+01,      /* I = 21 */
(PID.TID 0000.0001)                -3.249196641193528E+01,      /* I = 22 */
(PID.TID 0000.0001)                -3.206561769794830E+01,      /* I = 23 */
(PID.TID 0000.0001)                -3.163895980167081E+01,      /* I = 24 */
(PID.TID 0000.0001)                -3.121201084167799E+01,      /* I = 25 */
(PID.TID 0000.0001)                -3.078478905111047E+01,      /* I = 26 */
(PID.TID 0000.0001)                -3.035731277078966E+01,      /* I = 27 */
(PID.TID 0000.0001)                -2.992960044215640E+01,      /* I = 28 */
(PID.TID 0000.0001)                -2.950167060023449E+01,      /* I = 29 */
(PID.TID 0000.0001)                -2.907354186636741E+01       /* I = 30 */
(PID.TID 0000.0001)     ;
(PID.TID 0000.0001) yC =  /* yC(1,:,1,:) : P-point Y coord ( deg. or m if cartesian) */
(PID.TID 0000.0001)                -8.156222305107570E+01,      /* J =  1 */
(PID.TID 0000.0001)                -8.145288545832328E+01,      /* J =  2 */
(PID.TID 0000.0001)                -8.134305051368248E+01,      /* J =  3 */
(PID.TID 0000.0001)                -8.123272048044021E+01,      /* J =  4 */
(PID.TID 0000.0001)                -8.112189756353973E+01,      /* J =  5 */
(PID.TID 0000.0001)                -8.101058391277626E+01,      /* J =  6 */
(PID.TID 0000.0001)                -8.089878162585192E+01,      /* J =  7 */
(PID.TID 0000.0001)                -8.078649275125565E+01,      /* J =  8 */
(PID.TID 0000.0001)                -8.067371929098353E+01,      /* J =  9 */
(PID.TID 0000.0001)                -8.056046320313388E+01,      /* J = 10 */
(PID.TID 0000.0001)                -8.044672640432664E+01,      /* J = 11 */
(PID.TID 0000.0001)                -8.033251077204454E+01,      /* J = 12 */
(PID.TID 0000.0001)                -8.021781814682923E+01,      /* J = 13 */
(PID.TID 0000.0001)                -8.010265033434899E+01,      /* J = 14 */
(PID.TID 0000.0001)                -7.998700910740263E+01,      /* J = 15 */
(PID.TID 0000.0001)                -7.987089620777718E+01,      /* J = 16 */
(PID.TID 0000.0001)                -7.975431334805074E+01,      /* J = 17 */
(PID.TID 0000.0001)                -7.963726221327684E+01,      /* J = 18 */
(PID.TID 0000.0001)                -7.951974446260721E+01,      /* J = 19 */
(PID.TID 0000.0001)                -7.940176173082378E+01,      /* J = 20 */
(PID.TID 0000.0001)                -7.928331562979851E+01,      /* J = 21 */
(PID.TID 0000.0001)                -7.916440774989150E+01,      /* J = 22 */
(PID.TID 0000.0001)                -7.904503966125948E+01,      /* J = 23 */
(PID.TID 0000.0001)                -7.892521291513968E+01,      /* J = 24 */
(PID.TID 0000.0001)                -7.880492904503758E+01,      /* J = 25 */
(PID.TID 0000.0001)                -7.868418956788628E+01,      /* J = 26 */
(PID.TID 0000.0001)                -7.856299598513054E+01,      /* J = 27 */
(PID.TID 0000.0001)                -7.844134978378015E+01,      /* J = 28 */
(PID.TID 0000.0001)                -7.831925243739892E+01,      /* J = 29 */
(PID.TID 0000.0001)                -7.819670540708168E+01       /* J = 30 */
(PID.TID 0000.0001)     ;
(PID.TID 0000.0001) rcoord = /* P-point R coordinate (  units of r ) */
(PID.TID 0000.0001)                -5.000000000000000E+00,      /* K =  1 */
(PID.TID 0000.0001)                -1.500000000000000E+01,      /* K =  2 */
(PID.TID 0000.0001)                -2.500000000000000E+01,      /* K =  3 */
(PID.TID 0000.0001)                -3.500000000000000E+01,      /* K =  4 */
(PID.TID 0000.0001)                -4.500000000000000E+01,      /* K =  5 */
(PID.TID 0000.0001)                -5.500000000000000E+01,      /* K =  6 */
(PID.TID 0000.0001)                -6.500000000000000E+01,      /* K =  7 */
(PID.TID 0000.0001)                -7.500500000000000E+01,      /* K =  8 */
(PID.TID 0000.0001)                -8.502499999999999E+01,      /* K =  9 */
(PID.TID 0000.0001)                -9.509500000000000E+01,      /* K = 10 */
(PID.TID 0000.0001)                -1.053100000000000E+02,      /* K = 11 */
(PID.TID 0000.0001)                -1.158700000000000E+02,      /* K = 12 */
(PID.TID 0000.0001)                -1.271500000000000E+02,      /* K = 13 */
(PID.TID 0000.0001)                -1.397400000000000E+02,      /* K = 14 */
(PID.TID 0000.0001)                -1.544700000000000E+02,      /* K = 15 */
(PID.TID 0000.0001)                -1.724000000000000E+02,      /* K = 16 */
(PID.TID 0000.0001)                -1.947350000000000E+02,      /* K = 17 */
(PID.TID 0000.0001)                -2.227100000000000E+02,      /* K = 18 */
(PID.TID 0000.0001)                -2.574700000000000E+02,      /* K = 19 */
(PID.TID 0000.0001)                -2.999300000000000E+02,      /* K = 20 */
(PID.TID 0000.0001)                -3.506800000000000E+02,      /* K = 21 */
(PID.TID 0000.0001)                -4.099300000000000E+02,      /* K = 22 */
(PID.TID 0000.0001)                -4.774700000000000E+02,      /* K = 23 */
(PID.TID 0000.0001)                -5.527100000000000E+02,      /* K = 24 */
(PID.TID 0000.0001)                -6.347350000000000E+02,      /* K = 25 */
(PID.TID 0000.0001)                -7.224000000000000E+02,      /* K = 26 */
(PID.TID 0000.0001)                -8.144700000000000E+02,      /* K = 27 */
(PID.TID 0000.0001)                -9.097400000000000E+02,      /* K = 28 */
(PID.TID 0000.0001)                -1.007155000000000E+03,      /* K = 29 */
(PID.TID 0000.0001)                -1.105905000000000E+03,      /* K = 30 */
(PID.TID 0000.0001)                -1.205535000000000E+03,      /* K = 31 */
(PID.TID 0000.0001)                -1.306205000000000E+03,      /* K = 32 */
(PID.TID 0000.0001)                -1.409150000000000E+03,      /* K = 33 */
(PID.TID 0000.0001)                -1.517095000000000E+03,      /* K = 34 */
(PID.TID 0000.0001)                -1.634175000000000E+03,      /* K = 35 */
(PID.TID 0000.0001)                -1.765135000000000E+03,      /* K = 36 */
(PID.TID 0000.0001)                -1.914150000000000E+03,      /* K = 37 */
(PID.TID 0000.0001)                -2.084035000000000E+03,      /* K = 38 */
(PID.TID 0000.0001)                -2.276225000000000E+03,      /* K = 39 */
(PID.TID 0000.0001)                -2.491250000000000E+03,      /* K = 40 */
(PID.TID 0000.0001)                -2.729250000000000E+03,      /* K = 41 */
(PID.TID 0000.0001)                -2.990250000000000E+03,      /* K = 42 */
(PID.TID 0000.0001)                -3.274250000000000E+03,      /* K = 43 */
(PID.TID 0000.0001)                -3.581250000000000E+03,      /* K = 44 */
(PID.TID 0000.0001)                -3.911250000000000E+03,      /* K = 45 */
(PID.TID 0000.0001)                -4.264250000000000E+03,      /* K = 46 */
(PID.TID 0000.0001)                -4.640250000000000E+03,      /* K = 47 */
(PID.TID 0000.0001)                -5.039250000000000E+03,      /* K = 48 */
(PID.TID 0000.0001)                -5.461250000000000E+03,      /* K = 49 */
(PID.TID 0000.0001)                -5.906250000000000E+03       /* K = 50 */
(PID.TID 0000.0001)     ;
(PID.TID 0000.0001) rF =   /* W-Interf. R coordinate (  units of r ) */
(PID.TID 0000.0001)                 0.000000000000000E+00,      /* K =  1 */
(PID.TID 0000.0001)                -1.000000000000000E+01,      /* K =  2 */
(PID.TID 0000.0001)                -2.000000000000000E+01,      /* K =  3 */
(PID.TID 0000.0001)                -3.000000000000000E+01,      /* K =  4 */
(PID.TID 0000.0001)                -4.000000000000000E+01,      /* K =  5 */
(PID.TID 0000.0001)                -5.000000000000000E+01,      /* K =  6 */
(PID.TID 0000.0001)                -6.000000000000000E+01,      /* K =  7 */
(PID.TID 0000.0001)                -7.000000000000000E+01,      /* K =  8 */
(PID.TID 0000.0001)                -8.001000000000001E+01,      /* K =  9 */
(PID.TID 0000.0001)                -9.004000000000001E+01,      /* K = 10 */
(PID.TID 0000.0001)                -1.001500000000000E+02,      /* K = 11 */
(PID.TID 0000.0001)                -1.104700000000000E+02,      /* K = 12 */
(PID.TID 0000.0001)                -1.212700000000000E+02,      /* K = 13 */
(PID.TID 0000.0001)                -1.330300000000000E+02,      /* K = 14 */
(PID.TID 0000.0001)                -1.464500000000000E+02,      /* K = 15 */
(PID.TID 0000.0001)                -1.624900000000000E+02,      /* K = 16 */
(PID.TID 0000.0001)                -1.823100000000000E+02,      /* K = 17 */
(PID.TID 0000.0001)                -2.071600000000000E+02,      /* K = 18 */
(PID.TID 0000.0001)                -2.382600000000000E+02,      /* K = 19 */
(PID.TID 0000.0001)                -2.766799999999999E+02,      /* K = 20 */
(PID.TID 0000.0001)                -3.231799999999999E+02,      /* K = 21 */
(PID.TID 0000.0001)                -3.781799999999999E+02,      /* K = 22 */
(PID.TID 0000.0001)                -4.416799999999999E+02,      /* K = 23 */
(PID.TID 0000.0001)                -5.132600000000000E+02,      /* K = 24 */
(PID.TID 0000.0001)                -5.921600000000000E+02,      /* K = 25 */
(PID.TID 0000.0001)                -6.773099999999999E+02,      /* K = 26 */
(PID.TID 0000.0001)                -7.674900000000000E+02,      /* K = 27 */
(PID.TID 0000.0001)                -8.614500000000000E+02,      /* K = 28 */
(PID.TID 0000.0001)                -9.580300000000001E+02,      /* K = 29 */
(PID.TID 0000.0001)                -1.056280000000000E+03,      /* K = 30 */
(PID.TID 0000.0001)                -1.155530000000000E+03,      /* K = 31 */
(PID.TID 0000.0001)                -1.255540000000000E+03,      /* K = 32 */
(PID.TID 0000.0001)                -1.356870000000000E+03,      /* K = 33 */
(PID.TID 0000.0001)                -1.461430000000000E+03,      /* K = 34 */
(PID.TID 0000.0001)                -1.572760000000000E+03,      /* K = 35 */
(PID.TID 0000.0001)                -1.695590000000000E+03,      /* K = 36 */
(PID.TID 0000.0001)                -1.834680000000000E+03,      /* K = 37 */
(PID.TID 0000.0001)                -1.993620000000000E+03,      /* K = 38 */
(PID.TID 0000.0001)                -2.174450000000000E+03,      /* K = 39 */
(PID.TID 0000.0001)                -2.378000000000000E+03,      /* K = 40 */
(PID.TID 0000.0001)                -2.604500000000000E+03,      /* K = 41 */
(PID.TID 0000.0001)                -2.854000000000000E+03,      /* K = 42 */
(PID.TID 0000.0001)                -3.126500000000000E+03,      /* K = 43 */
(PID.TID 0000.0001)                -3.422000000000000E+03,      /* K = 44 */
(PID.TID 0000.0001)                -3.740500000000000E+03,      /* K = 45 */
(PID.TID 0000.0001)                -4.082000000000000E+03,      /* K = 46 */
(PID.TID 0000.0001)                -4.446500000000000E+03,      /* K = 47 */
(PID.TID 0000.0001)                -4.834000000000000E+03,      /* K = 48 */
(PID.TID 0000.0001)                -5.244500000000000E+03,      /* K = 49 */
(PID.TID 0000.0001)                -5.678000000000000E+03,      /* K = 50 */
(PID.TID 0000.0001)                -6.134500000000000E+03       /* K = 51 */
(PID.TID 0000.0001)     ;
(PID.TID 0000.0001) deepFacC = /* deep-model grid factor @ cell-Center (-) */
(PID.TID 0000.0001)    50 @  1.000000000000000E+00              /* K =  1: 50 */
(PID.TID 0000.0001)     ;
(PID.TID 0000.0001) deepFacF = /* deep-model grid factor @ W-Interface (-) */
(PID.TID 0000.0001)    51 @  1.000000000000000E+00              /* K =  1: 51 */
(PID.TID 0000.0001)     ;
(PID.TID 0000.0001) rVel2wUnit = /* convert units: rVel -> wSpeed (=1 if z-coord)*/
(PID.TID 0000.0001)    51 @  1.000000000000000E+00              /* K =  1: 51 */
(PID.TID 0000.0001)     ;
(PID.TID 0000.0001) wUnit2rVel = /* convert units: wSpeed -> rVel (=1 if z-coord)*/
(PID.TID 0000.0001)    51 @  1.000000000000000E+00              /* K =  1: 51 */
(PID.TID 0000.0001)     ;
(PID.TID 0000.0001) dBdrRef = /* Vertical grad. of reference buoyancy [(m/s/r)^2] */
(PID.TID 0000.0001)     3 @  0.000000000000000E+00,             /* K =  1:  3 */
(PID.TID 0000.0001)                 2.706065538651213E-04,      /* K =  4 */
(PID.TID 0000.0001)     2 @  0.000000000000000E+00,             /* K =  5:  6 */
(PID.TID 0000.0001)                 2.632794562663490E-04,      /* K =  7 */
(PID.TID 0000.0001)                 2.554318021231947E-04,      /* K =  8 */
(PID.TID 0000.0001)                 0.000000000000000E+00,      /* K =  9 */
(PID.TID 0000.0001)                 2.461524232360561E-04,      /* K = 10 */
(PID.TID 0000.0001)                 2.348694431245364E-04,      /* K = 11 */
(PID.TID 0000.0001)                 0.000000000000000E+00,      /* K = 12 */
(PID.TID 0000.0001)                 2.056847859884566E-04,      /* K = 13 */
(PID.TID 0000.0001)                 1.777764506003336E-04,      /* K = 14 */
(PID.TID 0000.0001)                 0.000000000000000E+00,      /* K = 15 */
(PID.TID 0000.0001)                 1.203533867077665E-04,      /* K = 16 */
(PID.TID 0000.0001)                 9.288540355629585E-05,      /* K = 17 */
(PID.TID 0000.0001)                 7.115862770365155E-05,      /* K = 18 */
(PID.TID 0000.0001)                 5.484365820533800E-05,      /* K = 19 */
(PID.TID 0000.0001)                 4.290935507113214E-05,      /* K = 20 */
(PID.TID 0000.0001)                 6.658747741703880E-05,      /* K = 21 */
(PID.TID 0000.0001)                 0.000000000000000E+00,      /* K = 22 */
(PID.TID 0000.0001)                 2.323718420342036E-05,      /* K = 23 */
(PID.TID 0000.0001)                 1.974682037962757E-05,      /* K = 24 */
(PID.TID 0000.0001)                 1.709468932536602E-05,      /* K = 25 */
(PID.TID 0000.0001)                 0.000000000000000E+00,      /* K = 26 */
(PID.TID 0000.0001)                 1.455436545977052E-05,      /* K = 27 */
(PID.TID 0000.0001)                 0.000000000000000E+00,      /* K = 28 */
(PID.TID 0000.0001)                 1.315287111980149E-05,      /* K = 29 */
(PID.TID 0000.0001)     2 @  0.000000000000000E+00,             /* K = 30: 31 */
(PID.TID 0000.0001)                 1.240968507885233E-05,      /* K = 32 */
(PID.TID 0000.0001)     2 @  0.000000000000000E+00,             /* K = 33: 34 */
(PID.TID 0000.0001)                 1.045141607964570E-05,      /* K = 35 */
(PID.TID 0000.0001)     3 @  0.000000000000000E+00,             /* K = 36: 38 */
(PID.TID 0000.0001)                 6.628797113709505E-06,      /* K = 39 */
(PID.TID 0000.0001)    11 @  0.000000000000000E+00              /* K = 40: 50 */
(PID.TID 0000.0001)     ;
(PID.TID 0000.0001) rotateGrid = /* use rotated grid ( True/False ) */
(PID.TID 0000.0001)                   F
(PID.TID 0000.0001)     ;
(PID.TID 0000.0001) phiEuler = /* Euler angle, rotation about original z-coordinate [rad] */
(PID.TID 0000.0001)                 0.000000000000000E+00
(PID.TID 0000.0001)     ;
(PID.TID 0000.0001) thetaEuler = /* Euler angle, rotation about new x-coordinate [rad] */
(PID.TID 0000.0001)                 0.000000000000000E+00
(PID.TID 0000.0001)     ;
(PID.TID 0000.0001) psiEuler = /* Euler angle, rotation about new z-coordinate [rad] */
(PID.TID 0000.0001)                 0.000000000000000E+00
(PID.TID 0000.0001)     ;
(PID.TID 0000.0001) dxF =  /* dxF(:,1,:,1) ( units: m ) */
(PID.TID 0000.0001)                 6.863615593967317E+03,      /* I =  1 */
(PID.TID 0000.0001)                 6.862722231072880E+03,      /* I =  2 */
(PID.TID 0000.0001)                 6.861848779977952E+03,      /* I =  3 */
(PID.TID 0000.0001)                 6.860995537408438E+03,      /* I =  4 */
(PID.TID 0000.0001)                 6.860162787827832E+03,      /* I =  5 */
(PID.TID 0000.0001)                 6.859350809337673E+03,      /* I =  6 */
(PID.TID 0000.0001)                 6.858559868884686E+03,      /* I =  7 */
(PID.TID 0000.0001)                 6.857790226718680E+03,      /* I =  8 */
(PID.TID 0000.0001)                 6.857042133006554E+03,      /* I =  9 */
(PID.TID 0000.0001)                 6.856315831490823E+03,      /* I = 10 */
(PID.TID 0000.0001)                 6.855611554937377E+03,      /* I = 11 */
(PID.TID 0000.0001)                 6.854929529480350E+03,      /* I = 12 */
(PID.TID 0000.0001)                 6.854269972565868E+03,      /* I = 13 */
(PID.TID 0000.0001)                 6.853633092121773E+03,      /* I = 14 */
(PID.TID 0000.0001)                 6.853019089702906E+03,      /* I = 15 */
(PID.TID 0000.0001)                 6.852428157420198E+03,      /* I = 16 */
(PID.TID 0000.0001)                 6.851860479654775E+03,      /* I = 17 */
(PID.TID 0000.0001)                 6.851316233979433E+03,      /* I = 18 */
(PID.TID 0000.0001)                 6.850795587352138E+03,      /* I = 19 */
(PID.TID 0000.0001)                 6.850298700341547E+03,      /* I = 20 */
(PID.TID 0000.0001)                 6.849825726302971E+03,      /* I = 21 */
(PID.TID 0000.0001)                 6.849376809328085E+03,      /* I = 22 */
(PID.TID 0000.0001)                 6.848952086838292E+03,      /* I = 23 */
(PID.TID 0000.0001)                 6.848551686810213E+03,      /* I = 24 */
(PID.TID 0000.0001)                 6.848175732003599E+03,      /* I = 25 */
(PID.TID 0000.0001)                 6.847824335962330E+03,      /* I = 26 */
(PID.TID 0000.0001)                 6.847497604280705E+03,      /* I = 27 */
(PID.TID 0000.0001)                 6.847195637367752E+03,      /* I = 28 */
(PID.TID 0000.0001)                 6.846918524871216E+03,      /* I = 29 */
(PID.TID 0000.0001)                 6.846666353727887E+03       /* I = 30 */
(PID.TID 0000.0001)     ;
(PID.TID 0000.0001) dxF =  /* dxF(1,:,1,:) ( units: m ) */
(PID.TID 0000.0001)                 6.863615593967317E+03,      /* J =  1 */
(PID.TID 0000.0001)                 6.904752742128809E+03,      /* J =  2 */
(PID.TID 0000.0001)                 6.946424189353420E+03,      /* J =  3 */
(PID.TID 0000.0001)                 6.988629980273469E+03,      /* J =  4 */
(PID.TID 0000.0001)                 7.031370142640643E+03,      /* J =  5 */
(PID.TID 0000.0001)                 7.074644689127916E+03,      /* J =  6 */
(PID.TID 0000.0001)                 7.118453619116909E+03,      /* J =  7 */
(PID.TID 0000.0001)                 7.162796920394563E+03,      /* J =  8 */
(PID.TID 0000.0001)                 7.207674570862670E+03,      /* J =  9 */
(PID.TID 0000.0001)                 7.253086540147685E+03,      /* J = 10 */
(PID.TID 0000.0001)                 7.299032791224216E+03,      /* J = 11 */
(PID.TID 0000.0001)                 7.345513281941474E+03,      /* J = 12 */
(PID.TID 0000.0001)                 7.392527966532176E+03,      /* J = 13 */
(PID.TID 0000.0001)                 7.440076797066824E+03,      /* J = 14 */
(PID.TID 0000.0001)                 7.488159724854228E+03,      /* J = 15 */
(PID.TID 0000.0001)                 7.536776701811343E+03,      /* J = 16 */
(PID.TID 0000.0001)                 7.585927681768870E+03,      /* J = 17 */
(PID.TID 0000.0001)                 7.635612621729482E+03,      /* J = 18 */
(PID.TID 0000.0001)                 7.685831483093685E+03,      /* J = 19 */
(PID.TID 0000.0001)                 7.736584232810136E+03,      /* J = 20 */
(PID.TID 0000.0001)                 7.787870844510898E+03,      /* J = 21 */
(PID.TID 0000.0001)                 7.839691299569714E+03,      /* J = 22 */
(PID.TID 0000.0001)                 7.892045588135486E+03,      /* J = 23 */
(PID.TID 0000.0001)                 7.944933710094811E+03,      /* J = 24 */
(PID.TID 0000.0001)                 7.998355676011221E+03,      /* J = 25 */
(PID.TID 0000.0001)                 8.052311507996983E+03,      /* J = 26 */
(PID.TID 0000.0001)                 8.106801240566514E+03,      /* J = 27 */
(PID.TID 0000.0001)                 8.161824921407047E+03,      /* J = 28 */
(PID.TID 0000.0001)                 8.217382612139896E+03,      /* J = 29 */
(PID.TID 0000.0001)                 8.273474389004645E+03       /* J = 30 */
(PID.TID 0000.0001)     ;
(PID.TID 0000.0001) dyF =  /* dyF(:,1,:,1) ( units: m ) */
(PID.TID 0000.0001)                 1.227751928444344E+04,      /* I =  1 */
(PID.TID 0000.0001)                 1.228591869660542E+04,      /* I =  2 */
(PID.TID 0000.0001)                 1.229409699515609E+04,      /* I =  3 */
(PID.TID 0000.0001)                 1.230205417673644E+04,      /* I =  4 */
(PID.TID 0000.0001)                 1.230979023939301E+04,      /* I =  5 */
(PID.TID 0000.0001)                 1.231730518243348E+04,      /* I =  6 */
(PID.TID 0000.0001)                 1.232459900634869E+04,      /* I =  7 */
(PID.TID 0000.0001)                 1.233167171271786E+04,      /* I =  8 */
(PID.TID 0000.0001)                 1.233852330405648E+04,      /* I =  9 */
(PID.TID 0000.0001)                 1.234515378376992E+04,      /* I = 10 */
(PID.TID 0000.0001)                 1.235156315603010E+04,      /* I = 11 */
(PID.TID 0000.0001)                 1.235775142570177E+04,      /* I = 12 */
(PID.TID 0000.0001)                 1.236371859825114E+04,      /* I = 13 */
(PID.TID 0000.0001)                 1.236946467965540E+04,      /* I = 14 */
(PID.TID 0000.0001)                 1.237498967633567E+04,      /* I = 15 */
(PID.TID 0000.0001)                 1.238029359506627E+04,      /* I = 16 */
(PID.TID 0000.0001)                 1.238537644292084E+04,      /* I = 17 */
(PID.TID 0000.0001)                 1.239023822717883E+04,      /* I = 18 */
(PID.TID 0000.0001)                 1.239487895528460E+04,      /* I = 19 */
(PID.TID 0000.0001)                 1.239929863474605E+04,      /* I = 20 */
(PID.TID 0000.0001)                 1.240349727312680E+04,      /* I = 21 */
(PID.TID 0000.0001)                 1.240747487794193E+04,      /* I = 22 */
(PID.TID 0000.0001)                 1.241123145663234E+04,      /* I = 23 */
(PID.TID 0000.0001)                 1.241476701648425E+04,      /* I = 24 */
(PID.TID 0000.0001)                 1.241808156462710E+04,      /* I = 25 */
(PID.TID 0000.0001)                 1.242117510794436E+04,      /* I = 26 */
(PID.TID 0000.0001)                 1.242404765305379E+04,      /* I = 27 */
(PID.TID 0000.0001)                 1.242669920625087E+04,      /* I = 28 */
(PID.TID 0000.0001)                 1.242912977350611E+04,      /* I = 29 */
(PID.TID 0000.0001)                 1.243133936038973E+04       /* I = 30 */
(PID.TID 0000.0001)     ;
(PID.TID 0000.0001) dyF =  /* dyF(1,:,1,:) ( units: m ) */
(PID.TID 0000.0001)                 1.227751928444344E+04,      /* J =  1 */
(PID.TID 0000.0001)                 1.232742537547839E+04,      /* J =  2 */
(PID.TID 0000.0001)                 1.237727430252405E+04,      /* J =  3 */
(PID.TID 0000.0001)                 1.242706479929748E+04,      /* J =  4 */
(PID.TID 0000.0001)                 1.247679560204479E+04,      /* J =  5 */
(PID.TID 0000.0001)                 1.252646544986302E+04,      /* J =  6 */
(PID.TID 0000.0001)                 1.257607308426484E+04,      /* J =  7 */
(PID.TID 0000.0001)                 1.262561725135579E+04,      /* J =  8 */
(PID.TID 0000.0001)                 1.267509670016861E+04,      /* J =  9 */
(PID.TID 0000.0001)                 1.272451018273441E+04,      /* J = 10 */
(PID.TID 0000.0001)                 1.277385645614826E+04,      /* J = 11 */
(PID.TID 0000.0001)                 1.282313427996446E+04,      /* J = 12 */
(PID.TID 0000.0001)                 1.287234241935688E+04,      /* J = 13 */
(PID.TID 0000.0001)                 1.292147964209380E+04,      /* J = 14 */
(PID.TID 0000.0001)                 1.297054472166446E+04,      /* J = 15 */
(PID.TID 0000.0001)                 1.301953643426760E+04,      /* J = 16 */
(PID.TID 0000.0001)                 1.306845356203947E+04,      /* J = 17 */
(PID.TID 0000.0001)                 1.311729488991836E+04,      /* J = 18 */
(PID.TID 0000.0001)                 1.316605920804952E+04,      /* J = 19 */
(PID.TID 0000.0001)                 1.321474531060100E+04,      /* J = 20 */
(PID.TID 0000.0001)                 1.326335199654720E+04,      /* J = 21 */
(PID.TID 0000.0001)                 1.331187806822287E+04,      /* J = 22 */
(PID.TID 0000.0001)                 1.336032233383137E+04,      /* J = 23 */
(PID.TID 0000.0001)                 1.340868360356131E+04,      /* J = 24 */
(PID.TID 0000.0001)                 1.345696069362872E+04,      /* J = 25 */
(PID.TID 0000.0001)                 1.350515242375257E+04,      /* J = 26 */
(PID.TID 0000.0001)                 1.355325761733951E+04,      /* J = 27 */
(PID.TID 0000.0001)                 1.360127510277153E+04,      /* J = 28 */
(PID.TID 0000.0001)                 1.364920371113206E+04,      /* J = 29 */
(PID.TID 0000.0001)                 1.369704227775743E+04       /* J = 30 */
(PID.TID 0000.0001)     ;
(PID.TID 0000.0001) dxG =  /* dxG(:,1,:,1) ( units: m ) */
(PID.TID 0000.0001)                 6.843247363022771E+03,      /* I =  1 */
(PID.TID 0000.0001)                 6.842365815507512E+03,      /* I =  2 */
(PID.TID 0000.0001)                 6.841503841684224E+03,      /* I =  3 */
(PID.TID 0000.0001)                 6.840661740504797E+03,      /* I =  4 */
(PID.TID 0000.0001)                 6.839839798596618E+03,      /* I =  5 */
(PID.TID 0000.0001)                 6.839038296160214E+03,      /* I =  6 */
(PID.TID 0000.0001)                 6.838257502170827E+03,      /* I =  7 */
(PID.TID 0000.0001)                 6.837497678844589E+03,      /* I =  8 */
(PID.TID 0000.0001)                 6.836759078247265E+03,      /* I =  9 */
(PID.TID 0000.0001)                 6.836041945949344E+03,      /* I = 10 */
(PID.TID 0000.0001)                 6.835346516488560E+03,      /* I = 11 */
(PID.TID 0000.0001)                 6.834673017700341E+03,      /* I = 12 */
(PID.TID 0000.0001)                 6.834021668670639E+03,      /* I = 13 */
(PID.TID 0000.0001)                 6.833392678909989E+03,      /* I = 14 */
(PID.TID 0000.0001)                 6.832786251482365E+03,      /* I = 15 */
(PID.TID 0000.0001)                 6.832202579954163E+03,      /* I = 16 */
(PID.TID 0000.0001)                 6.831641850097366E+03,      /* I = 17 */
(PID.TID 0000.0001)                 6.831104240810164E+03,      /* I = 18 */
(PID.TID 0000.0001)                 6.830589920324948E+03,      /* I = 19 */
(PID.TID 0000.0001)                 6.830099050417057E+03,      /* I = 20 */
(PID.TID 0000.0001)                 6.829631785589025E+03,      /* I = 21 */
(PID.TID 0000.0001)                 6.829188271020254E+03,      /* I = 22 */
(PID.TID 0000.0001)                 6.828768645163615E+03,      /* I = 23 */
(PID.TID 0000.0001)                 6.828373036965353E+03,      /* I = 24 */
(PID.TID 0000.0001)                 6.828001570094182E+03,      /* I = 25 */
(PID.TID 0000.0001)                 6.827654358947364E+03,      /* I = 26 */
(PID.TID 0000.0001)                 6.827331509913941E+03,      /* I = 27 */
(PID.TID 0000.0001)                 6.827033124134182E+03,      /* I = 28 */
(PID.TID 0000.0001)                 6.826759291937085E+03,      /* I = 29 */
(PID.TID 0000.0001)                 6.826510100870506E+03       /* I = 30 */
(PID.TID 0000.0001)     ;
(PID.TID 0000.0001) dxG =  /* dxG(1,:,1,:) ( units: m ) */
(PID.TID 0000.0001)                 6.843247363022771E+03,      /* J =  1 */
(PID.TID 0000.0001)                 6.884117384162638E+03,      /* J =  2 */
(PID.TID 0000.0001)                 6.925521675151293E+03,      /* J =  3 */
(PID.TID 0000.0001)                 6.967460289743111E+03,      /* J =  4 */
(PID.TID 0000.0001)                 7.009933263902001E+03,      /* J =  5 */
(PID.TID 0000.0001)                 7.052940617616170E+03,      /* J =  6 */
(PID.TID 0000.0001)                 7.096482356697745E+03,      /* J =  7 */
(PID.TID 0000.0001)                 7.140558474513746E+03,      /* J =  8 */
(PID.TID 0000.0001)                 7.185168953702225E+03,      /* J =  9 */
(PID.TID 0000.0001)                 7.230313767830417E+03,      /* J = 10 */
(PID.TID 0000.0001)                 7.275992882994261E+03,      /* J = 11 */
(PID.TID 0000.0001)                 7.322206259420906E+03,      /* J = 12 */
(PID.TID 0000.0001)                 7.368953852964554E+03,      /* J = 13 */
(PID.TID 0000.0001)                 7.416235616598005E+03,      /* J = 14 */
(PID.TID 0000.0001)                 7.464051501837514E+03,      /* J = 15 */
(PID.TID 0000.0001)                 7.512401460133904E+03,      /* J = 16 */
(PID.TID 0000.0001)                 7.561285444190169E+03,      /* J = 17 */
(PID.TID 0000.0001)                 7.610703409278503E+03,      /* J = 18 */
(PID.TID 0000.0001)                 7.660655314445356E+03,      /* J = 19 */
(PID.TID 0000.0001)                 7.711141123726305E+03,      /* J = 20 */
(PID.TID 0000.0001)                 7.762160807269163E+03,      /* J = 21 */
(PID.TID 0000.0001)                 7.813714342453684E+03,      /* J = 22 */
(PID.TID 0000.0001)                 7.865801714910045E+03,      /* J = 23 */
(PID.TID 0000.0001)                 7.918422919541414E+03,      /* J = 24 */
(PID.TID 0000.0001)                 7.971577961455001E+03,      /* J = 25 */
(PID.TID 0000.0001)                 8.025266856886930E+03,      /* J = 26 */
(PID.TID 0000.0001)                 8.079489634048523E+03,      /* J = 27 */
(PID.TID 0000.0001)                 8.134246333938740E+03,      /* J = 28 */
(PID.TID 0000.0001)                 8.189537011122880E+03,      /* J = 29 */
(PID.TID 0000.0001)                 8.245361734451371E+03       /* J = 30 */
(PID.TID 0000.0001)     ;
(PID.TID 0000.0001) dyG =  /* dyG(:,1,:,1) ( units: m ) */
(PID.TID 0000.0001)                 1.227323666220869E+04,      /* I =  1 */
(PID.TID 0000.0001)                 1.228174662945830E+04,      /* I =  2 */
(PID.TID 0000.0001)                 1.229003548532856E+04,      /* I =  3 */
(PID.TID 0000.0001)                 1.229810322572232E+04,      /* I =  4 */
(PID.TID 0000.0001)                 1.230594984799947E+04,      /* I =  5 */
(PID.TID 0000.0001)                 1.231357535085520E+04,      /* I =  6 */
(PID.TID 0000.0001)                 1.232097973420645E+04,      /* I =  7 */
(PID.TID 0000.0001)                 1.232816299909057E+04,      /* I =  8 */
(PID.TID 0000.0001)                 1.233512514757130E+04,      /* I =  9 */
(PID.TID 0000.0001)                 1.234186618262541E+04,      /* I = 10 */
(PID.TID 0000.0001)                 1.234838610804131E+04,      /* I = 11 */
(PID.TID 0000.0001)                 1.235468492835953E+04,      /* I = 12 */
(PID.TID 0000.0001)                 1.236076264875366E+04,      /* I = 13 */
(PID.TID 0000.0001)                 1.236661927495230E+04,      /* I = 14 */
(PID.TID 0000.0001)                 1.237225481317174E+04,      /* I = 15 */
(PID.TID 0000.0001)                 1.237766927001053E+04,      /* I = 16 */
(PID.TID 0000.0001)                 1.238286265240420E+04,      /* I = 17 */
(PID.TID 0000.0001)                 1.238783496753678E+04,      /* I = 18 */
(PID.TID 0000.0001)                 1.239258622278152E+04,      /* I = 19 */
(PID.TID 0000.0001)                 1.239711642562361E+04,      /* I = 20 */
(PID.TID 0000.0001)                 1.240142558359811E+04,      /* I = 21 */
(PID.TID 0000.0001)                 1.240551370426608E+04,      /* I = 22 */
(PID.TID 0000.0001)                 1.240938079509171E+04,      /* I = 23 */
(PID.TID 0000.0001)                 1.241302686346077E+04,      /* I = 24 */
(PID.TID 0000.0001)                 1.241645191658345E+04,      /* I = 25 */
(PID.TID 0000.0001)                 1.241965596146629E+04,      /* I = 26 */
(PID.TID 0000.0001)                 1.242263900487299E+04,      /* I = 27 */
(PID.TID 0000.0001)                 1.242540105325870E+04,      /* I = 28 */
(PID.TID 0000.0001)                 1.242794211276691E+04,      /* I = 29 */
(PID.TID 0000.0001)                 1.243026218916399E+04       /* I = 30 */
(PID.TID 0000.0001)     ;
(PID.TID 0000.0001) dyG =  /* dyG(1,:,1,:) ( units: m ) */
(PID.TID 0000.0001)                 1.227323666220869E+04,      /* J =  1 */
(PID.TID 0000.0001)                 1.232314189853572E+04,      /* J =  2 */
(PID.TID 0000.0001)                 1.237298967685533E+04,      /* J =  3 */
(PID.TID 0000.0001)                 1.242277871507357E+04,      /* J =  4 */
(PID.TID 0000.0001)                 1.247250773379563E+04,      /* J =  5 */
(PID.TID 0000.0001)                 1.252217545672362E+04,      /* J =  6 */
(PID.TID 0000.0001)                 1.257178061017542E+04,      /* J =  7 */
(PID.TID 0000.0001)                 1.262132192529374E+04,      /* J =  8 */
(PID.TID 0000.0001)                 1.267079813637477E+04,      /* J =  9 */
(PID.TID 0000.0001)                 1.272020798094159E+04,      /* J = 10 */
(PID.TID 0000.0001)                 1.276955020183152E+04,      /* J = 11 */
(PID.TID 0000.0001)                 1.281882354456144E+04,      /* J = 12 */
(PID.TID 0000.0001)                 1.286802676053924E+04,      /* J = 13 */
(PID.TID 0000.0001)                 1.291715860396350E+04,      /* J = 14 */
(PID.TID 0000.0001)                 1.296621783505522E+04,      /* J = 15 */
(PID.TID 0000.0001)                 1.301520321695769E+04,      /* J = 16 */
(PID.TID 0000.0001)                 1.306411351898580E+04,      /* J = 17 */
(PID.TID 0000.0001)                 1.311294751354221E+04,      /* J = 18 */
(PID.TID 0000.0001)                 1.316170397846497E+04,      /* J = 19 */
(PID.TID 0000.0001)                 1.321038169584444E+04,      /* J = 20 */
(PID.TID 0000.0001)                 1.325897945284852E+04,      /* J = 21 */
(PID.TID 0000.0001)                 1.330749604023848E+04,      /* J = 22 */
(PID.TID 0000.0001)                 1.335593025488922E+04,      /* J = 23 */
(PID.TID 0000.0001)                 1.340428089589610E+04,      /* J = 24 */
(PID.TID 0000.0001)                 1.345254676863549E+04,      /* J = 25 */
(PID.TID 0000.0001)                 1.350072668220072E+04,      /* J = 26 */
(PID.TID 0000.0001)                 1.354881944963842E+04,      /* J = 27 */
(PID.TID 0000.0001)                 1.359682388916476E+04,      /* J = 28 */
(PID.TID 0000.0001)                 1.364473882198267E+04,      /* J = 29 */
(PID.TID 0000.0001)                 1.369256307369285E+04       /* J = 30 */
(PID.TID 0000.0001)     ;
(PID.TID 0000.0001) dxC =  /* dxC(:,1,:,1) ( units: m ) */
(PID.TID 0000.0001)                 6.864069648964547E+03,      /* I =  1 */
(PID.TID 0000.0001)                 6.863166441746973E+03,      /* I =  2 */
(PID.TID 0000.0001)                 6.862282997663833E+03,      /* I =  3 */
(PID.TID 0000.0001)                 6.861419615046893E+03,      /* I =  4 */
(PID.TID 0000.0001)                 6.860576583514345E+03,      /* I =  5 */
(PID.TID 0000.0001)                 6.859754185190757E+03,      /* I =  6 */
(PID.TID 0000.0001)                 6.858952692712557E+03,      /* I =  7 */
(PID.TID 0000.0001)                 6.858172369757494E+03,      /* I =  8 */
(PID.TID 0000.0001)                 6.857413470612019E+03,      /* I =  9 */
(PID.TID 0000.0001)                 6.856676243942946E+03,      /* I = 10 */
(PID.TID 0000.0001)                 6.855960925751779E+03,      /* I = 11 */
(PID.TID 0000.0001)                 6.855267747215188E+03,      /* I = 12 */
(PID.TID 0000.0001)                 6.854596928682186E+03,      /* I = 13 */
(PID.TID 0000.0001)                 6.853948685221026E+03,      /* I = 14 */
(PID.TID 0000.0001)                 6.853323219074349E+03,      /* I = 15 */
(PID.TID 0000.0001)                 6.852720727809696E+03,      /* I = 16 */
(PID.TID 0000.0001)                 6.852141400436045E+03,      /* I = 17 */
(PID.TID 0000.0001)                 6.851585417284106E+03,      /* I = 18 */
(PID.TID 0000.0001)                 6.851052950387548E+03,      /* I = 19 */
(PID.TID 0000.0001)                 6.850544164079229E+03,      /* I = 20 */
(PID.TID 0000.0001)                 6.850059215559804E+03,      /* I = 21 */
(PID.TID 0000.0001)                 6.849598251832571E+03,      /* I = 22 */
(PID.TID 0000.0001)                 6.849161415493150E+03,      /* I = 23 */
(PID.TID 0000.0001)                 6.848748838435974E+03,      /* I = 24 */
(PID.TID 0000.0001)                 6.848360646581297E+03,      /* I = 25 */
(PID.TID 0000.0001)                 6.847996957436972E+03,      /* I = 26 */
(PID.TID 0000.0001)                 6.847657880685698E+03,      /* I = 27 */
(PID.TID 0000.0001)                 6.847343519485440E+03,      /* I = 28 */
(PID.TID 0000.0001)                 6.847053968611514E+03,      /* I = 29 */
(PID.TID 0000.0001)                 6.846789316748243E+03       /* I = 30 */
(PID.TID 0000.0001)     ;
(PID.TID 0000.0001) dxC =  /* dxC(1,:,1,:) ( units: m ) */
(PID.TID 0000.0001)                 6.864069648964547E+03,      /* J =  1 */
(PID.TID 0000.0001)                 6.905218794658721E+03,      /* J =  2 */
(PID.TID 0000.0001)                 6.946902135289070E+03,      /* J =  3 */
(PID.TID 0000.0001)                 6.989119707077347E+03,      /* J =  4 */
(PID.TID 0000.0001)                 7.031871529312912E+03,      /* J =  5 */
(PID.TID 0000.0001)                 7.075157606155075E+03,      /* J =  6 */
(PID.TID 0000.0001)                 7.118977928419789E+03,      /* J =  7 */
(PID.TID 0000.0001)                 7.163332475276359E+03,      /* J =  8 */
(PID.TID 0000.0001)                 7.208221215955778E+03,      /* J =  9 */
(PID.TID 0000.0001)                 7.253644111367266E+03,      /* J = 10 */
(PID.TID 0000.0001)                 7.299601115714832E+03,      /* J = 11 */
(PID.TID 0000.0001)                 7.346092178028882E+03,      /* J = 12 */
(PID.TID 0000.0001)                 7.393117243671513E+03,      /* J = 13 */
(PID.TID 0000.0001)                 7.440676255794272E+03,      /* J = 14 */
(PID.TID 0000.0001)                 7.488769156734068E+03,      /* J = 15 */
(PID.TID 0000.0001)                 7.537395889390902E+03,      /* J = 16 */
(PID.TID 0000.0001)                 7.586556398523164E+03,      /* J = 17 */
(PID.TID 0000.0001)                 7.636250632012459E+03,      /* J = 18 */
(PID.TID 0000.0001)                 7.686478542083817E+03,      /* J = 19 */
(PID.TID 0000.0001)                 7.737240086464752E+03,      /* J = 20 */
(PID.TID 0000.0001)                 7.788535229508390E+03,      /* J = 21 */
(PID.TID 0000.0001)                 7.840363943257453E+03,      /* J = 22 */
(PID.TID 0000.0001)                 7.892726208477145E+03,      /* J = 23 */
(PID.TID 0000.0001)                 7.945622015617442E+03,      /* J = 24 */
(PID.TID 0000.0001)                 7.999051365747157E+03,      /* J = 25 */
(PID.TID 0000.0001)                 8.053014271429598E+03,      /* J = 26 */
(PID.TID 0000.0001)                 8.107510757570453E+03,      /* J = 27 */
(PID.TID 0000.0001)                 8.162540862195394E+03,      /* J = 28 */
(PID.TID 0000.0001)                 8.218104637203127E+03,      /* J = 29 */
(PID.TID 0000.0001)                 8.274202149049081E+03       /* J = 30 */
(PID.TID 0000.0001)     ;
(PID.TID 0000.0001) dyC =  /* dyC(:,1,:,1) ( units: m ) */
(PID.TID 0000.0001)                 1.225254519893454E+04,      /* I =  1 */
(PID.TID 0000.0001)                 1.226094394630590E+04,      /* I =  2 */
(PID.TID 0000.0001)                 1.226912155553473E+04,      /* I =  3 */
(PID.TID 0000.0001)                 1.227707802666899E+04,      /* I =  4 */
(PID.TID 0000.0001)                 1.228481336105020E+04,      /* I =  5 */
(PID.TID 0000.0001)                 1.229232756120442E+04,      /* I =  6 */
(PID.TID 0000.0001)                 1.229962063074158E+04,      /* I =  7 */
(PID.TID 0000.0001)                 1.230669257424409E+04,      /* I =  8 */
(PID.TID 0000.0001)                 1.231354339715086E+04,      /* I =  9 */
(PID.TID 0000.0001)                 1.232017310568941E+04,      /* I = 10 */
(PID.TID 0000.0001)                 1.232658170676918E+04,      /* I = 11 */
(PID.TID 0000.0001)                 1.233276920788783E+04,      /* I = 12 */
(PID.TID 0000.0001)                 1.233873561704701E+04,      /* I = 13 */
(PID.TID 0000.0001)                 1.234448094268160E+04,      /* I = 14 */
(PID.TID 0000.0001)                 1.235000519355510E+04,      /* I = 15 */
(PID.TID 0000.0001)                 1.235530837871308E+04,      /* I = 16 */
(PID.TID 0000.0001)                 1.236039050738670E+04,      /* I = 17 */
(PID.TID 0000.0001)                 1.236525158894121E+04,      /* I = 18 */
(PID.TID 0000.0001)                 1.236989163278890E+04,      /* I = 19 */
(PID.TID 0000.0001)                 1.237431064834146E+04,      /* I = 20 */
(PID.TID 0000.0001)                 1.237850864495485E+04,      /* I = 21 */
(PID.TID 0000.0001)                 1.238248563185215E+04,      /* I = 22 */
(PID.TID 0000.0001)                 1.238624161809003E+04,      /* I = 23 */
(PID.TID 0000.0001)                 1.238977661248701E+04,      /* I = 24 */
(PID.TID 0000.0001)                 1.239309062359361E+04,      /* I = 25 */
(PID.TID 0000.0001)                 1.239618365964591E+04,      /* I = 26 */
(PID.TID 0000.0001)                 1.239905572850690E+04,      /* I = 27 */
(PID.TID 0000.0001)                 1.240170683764508E+04,      /* I = 28 */
(PID.TID 0000.0001)                 1.240413699409652E+04,      /* I = 29 */
(PID.TID 0000.0001)                 1.240634620441789E+04       /* I = 30 */
(PID.TID 0000.0001)     ;
(PID.TID 0000.0001) dyC =  /* dyC(1,:,1,:) ( units: m ) */
(PID.TID 0000.0001)                 1.225254519893454E+04,      /* J =  1 */
(PID.TID 0000.0001)                 1.230247939621909E+04,      /* J =  2 */
(PID.TID 0000.0001)                 1.235235706345890E+04,      /* J =  3 */
(PID.TID 0000.0001)                 1.240217693404160E+04,      /* J =  4 */
(PID.TID 0000.0001)                 1.245193774127245E+04,      /* J =  5 */
(PID.TID 0000.0001)                 1.250163822384623E+04,      /* J =  6 */
(PID.TID 0000.0001)                 1.255127712210440E+04,      /* J =  7 */
(PID.TID 0000.0001)                 1.260085317963076E+04,      /* J =  8 */
(PID.TID 0000.0001)                 1.265036514397614E+04,      /* J =  9 */
(PID.TID 0000.0001)                 1.269981176473554E+04,      /* J = 10 */
(PID.TID 0000.0001)                 1.274919179813009E+04,      /* J = 11 */
(PID.TID 0000.0001)                 1.279850400167437E+04,      /* J = 12 */
(PID.TID 0000.0001)                 1.284774713710419E+04,      /* J = 13 */
(PID.TID 0000.0001)                 1.289691997221288E+04,      /* J = 14 */
(PID.TID 0000.0001)                 1.294602127625991E+04,      /* J = 15 */
(PID.TID 0000.0001)                 1.299504982517108E+04,      /* J = 16 */
(PID.TID 0000.0001)                 1.304400439725653E+04,      /* J = 17 */
(PID.TID 0000.0001)                 1.309288377661616E+04,      /* J = 18 */
(PID.TID 0000.0001)                 1.314168675065130E+04,      /* J = 19 */
(PID.TID 0000.0001)                 1.319041211150612E+04,      /* J = 20 */
(PID.TID 0000.0001)                 1.323905865578724E+04,      /* J = 21 */
(PID.TID 0000.0001)                 1.328762518364845E+04,      /* J = 22 */
(PID.TID 0000.0001)                 1.333611050137163E+04,      /* J = 23 */
(PID.TID 0000.0001)                 1.338451341712792E+04,      /* J = 24 */
(PID.TID 0000.0001)                 1.343283274506120E+04,      /* J = 25 */
(PID.TID 0000.0001)                 1.348106730220206E+04,      /* J = 26 */
(PID.TID 0000.0001)                 1.352921591088525E+04,      /* J = 27 */
(PID.TID 0000.0001)                 1.357727739655765E+04,      /* J = 28 */
(PID.TID 0000.0001)                 1.362525058964525E+04,      /* J = 29 */
(PID.TID 0000.0001)                 1.367313432178073E+04       /* J = 30 */
(PID.TID 0000.0001)     ;
(PID.TID 0000.0001) dxV =  /* dxV(:,1,:,1) ( units: m ) */
(PID.TID 0000.0001)                 6.843695382818423E+03,      /* I =  1 */
(PID.TID 0000.0001)                 6.842804160898428E+03,      /* I =  2 */
(PID.TID 0000.0001)                 6.841932362858710E+03,      /* I =  3 */
(PID.TID 0000.0001)                 6.841080289295229E+03,      /* I =  4 */
(PID.TID 0000.0001)                 6.840248232028887E+03,      /* I =  5 */
(PID.TID 0000.0001)                 6.839436475310778E+03,      /* I =  6 */
(PID.TID 0000.0001)                 6.838645293840852E+03,      /* I =  7 */
(PID.TID 0000.0001)                 6.837874953296654E+03,      /* I =  8 */
(PID.TID 0000.0001)                 6.837125709895767E+03,      /* I =  9 */
(PID.TID 0000.0001)                 6.836397814165943E+03,      /* I = 10 */
(PID.TID 0000.0001)                 6.835691503915098E+03,      /* I = 11 */
(PID.TID 0000.0001)                 6.835007012049123E+03,      /* I = 12 */
(PID.TID 0000.0001)                 6.834344560593770E+03,      /* I = 13 */
(PID.TID 0000.0001)                 6.833704366220813E+03,      /* I = 14 */
(PID.TID 0000.0001)                 6.833086632727044E+03,      /* I = 15 */
(PID.TID 0000.0001)                 6.832491559158248E+03,      /* I = 16 */
(PID.TID 0000.0001)                 6.831919335946518E+03,      /* I = 17 */
(PID.TID 0000.0001)                 6.831370144778846E+03,      /* I = 18 */
(PID.TID 0000.0001)                 6.830844158993546E+03,      /* I = 19 */
(PID.TID 0000.0001)                 6.830341544160447E+03,      /* I = 20 */
(PID.TID 0000.0001)                 6.829862458656066E+03,      /* I = 21 */
(PID.TID 0000.0001)                 6.829407050606922E+03,      /* I = 22 */
(PID.TID 0000.0001)                 6.828975463662263E+03,      /* I = 23 */
(PID.TID 0000.0001)                 6.828567830718923E+03,      /* I = 24 */
(PID.TID 0000.0001)                 6.828184278635629E+03,      /* I = 25 */
(PID.TID 0000.0001)                 6.827824925803790E+03,      /* I = 26 */
(PID.TID 0000.0001)                 6.827489882728692E+03,      /* I = 27 */
(PID.TID 0000.0001)                 6.827179253330149E+03,      /* I = 28 */
(PID.TID 0000.0001)                 6.826893133092490E+03,      /* I = 29 */
(PID.TID 0000.0001)                 6.826631611344129E+03       /* I = 30 */
(PID.TID 0000.0001)     ;
(PID.TID 0000.0001) dxV =  /* dxV(1,:,1,:) ( units: m ) */
(PID.TID 0000.0001)                 6.843695382818423E+03,      /* J =  1 */
(PID.TID 0000.0001)                 6.884577450418352E+03,      /* J =  2 */
(PID.TID 0000.0001)                 6.925993687924130E+03,      /* J =  3 */
(PID.TID 0000.0001)                 6.967944140707862E+03,      /* J =  4 */
(PID.TID 0000.0001)                 7.010428836295698E+03,      /* J =  5 */
(PID.TID 0000.0001)                 7.053447786189156E+03,      /* J =  6 */
(PID.TID 0000.0001)                 7.097000987659560E+03,      /* J =  7 */
(PID.TID 0000.0001)                 7.141088425485148E+03,      /* J =  8 */
(PID.TID 0000.0001)                 7.185710073655152E+03,      /* J =  9 */
(PID.TID 0000.0001)                 7.230865897043021E+03,      /* J = 10 */
(PID.TID 0000.0001)                 7.276555853007219E+03,      /* J = 11 */
(PID.TID 0000.0001)                 7.322779892973018E+03,      /* J = 12 */
(PID.TID 0000.0001)                 7.369537963952094E+03,      /* J = 13 */
(PID.TID 0000.0001)                 7.416830010024130E+03,      /* J = 14 */
(PID.TID 0000.0001)                 7.464655973758136E+03,      /* J = 15 */
(PID.TID 0000.0001)                 7.513015797610575E+03,      /* J = 16 */
(PID.TID 0000.0001)                 7.561909425243351E+03,      /* J = 17 */
(PID.TID 0000.0001)                 7.611336802824930E+03,      /* J = 18 */
(PID.TID 0000.0001)                 7.661297880259300E+03,      /* J = 19 */
(PID.TID 0000.0001)                 7.711792612382947E+03,      /* J = 20 */
(PID.TID 0000.0001)                 7.762820960092588E+03,      /* J = 21 */
(PID.TID 0000.0001)                 7.814382891462252E+03,      /* J = 22 */
(PID.TID 0000.0001)                 7.866478382767516E+03,      /* J = 23 */
(PID.TID 0000.0001)                 7.919107419499669E+03,      /* J = 24 */
(PID.TID 0000.0001)                 7.972269997301371E+03,      /* J = 25 */
(PID.TID 0000.0001)                 8.025966122885127E+03,      /* J = 26 */
(PID.TID 0000.0001)                 8.080195814884784E+03,      /* J = 27 */
(PID.TID 0000.0001)                 8.134959104665269E+03,      /* J = 28 */
(PID.TID 0000.0001)                 8.190256037098949E+03,      /* J = 29 */
(PID.TID 0000.0001)                 8.246086671281835E+03       /* J = 30 */
(PID.TID 0000.0001)     ;
(PID.TID 0000.0001) dyU =  /* dyU(:,1,:,1) ( units: m ) */
(PID.TID 0000.0001)                 1.224826289880780E+04,      /* I =  1 */
(PID.TID 0000.0001)                 1.225677221483728E+04,      /* I =  2 */
(PID.TID 0000.0001)                 1.226506039321531E+04,      /* I =  3 */
(PID.TID 0000.0001)                 1.227312743330567E+04,      /* I =  4 */
(PID.TID 0000.0001)                 1.228097333582171E+04,      /* I =  5 */
(PID.TID 0000.0001)                 1.228859810270456E+04,      /* I =  6 */
(PID.TID 0000.0001)                 1.229600173703894E+04,      /* I =  7 */
(PID.TID 0000.0001)                 1.230318424292612E+04,      /* I =  8 */
(PID.TID 0000.0001)                 1.231014562540187E+04,      /* I =  9 */
(PID.TID 0000.0001)                 1.231688589029917E+04,      /* I = 10 */
(PID.TID 0000.0001)                 1.232340504420619E+04,      /* I = 11 */
(PID.TID 0000.0001)                 1.232970309433059E+04,      /* I = 12 */
(PID.TID 0000.0001)                 1.233578004844269E+04,      /* I = 13 */
(PID.TID 0000.0001)                 1.234163591476382E+04,      /* I = 14 */
(PID.TID 0000.0001)                 1.234727070190250E+04,      /* I = 15 */
(PID.TID 0000.0001)                 1.235268441877466E+04,      /* I = 16 */
(PID.TID 0000.0001)                 1.235787707452389E+04,      /* I = 17 */
(PID.TID 0000.0001)                 1.236284867846547E+04,      /* I = 18 */
(PID.TID 0000.0001)                 1.236759923998838E+04,      /* I = 19 */
(PID.TID 0000.0001)                 1.237212876851310E+04,      /* I = 20 */
(PID.TID 0000.0001)                 1.237643727343636E+04,      /* I = 21 */
(PID.TID 0000.0001)                 1.238052476405126E+04,      /* I = 22 */
(PID.TID 0000.0001)                 1.238439124949490E+04,      /* I = 23 */
(PID.TID 0000.0001)                 1.238803673872666E+04,      /* I = 24 */
(PID.TID 0000.0001)                 1.239146124043042E+04,      /* I = 25 */
(PID.TID 0000.0001)                 1.239466476300186E+04,      /* I = 26 */
(PID.TID 0000.0001)                 1.239764731449642E+04,      /* I = 27 */
(PID.TID 0000.0001)                 1.240040890259133E+04,      /* I = 28 */
(PID.TID 0000.0001)                 1.240294953453997E+04,      /* I = 29 */
(PID.TID 0000.0001)                 1.240526921713342E+04       /* I = 30 */
(PID.TID 0000.0001)     ;
(PID.TID 0000.0001) dyU =  /* dyU(1,:,1,:) ( units: m ) */
(PID.TID 0000.0001)                 1.224826289880780E+04,      /* J =  1 */
(PID.TID 0000.0001)                 1.229819638238466E+04,      /* J =  2 */
(PID.TID 0000.0001)                 1.234807304989929E+04,      /* J =  3 */
(PID.TID 0000.0001)                 1.239789161880549E+04,      /* J =  4 */
(PID.TID 0000.0001)                 1.244765080668418E+04,      /* J =  5 */
(PID.TID 0000.0001)                 1.249734933671443E+04,      /* J =  6 */
(PID.TID 0000.0001)                 1.254698593394042E+04,      /* J =  7 */
(PID.TID 0000.0001)                 1.259655932685780E+04,      /* J =  8 */
(PID.TID 0000.0001)                 1.264606824817842E+04,      /* J =  9 */
(PID.TID 0000.0001)                 1.269551143287230E+04,      /* J = 10 */
(PID.TID 0000.0001)                 1.274488762277693E+04,      /* J = 11 */
(PID.TID 0000.0001)                 1.279419556125083E+04,      /* J = 12 */
(PID.TID 0000.0001)                 1.284343399613631E+04,      /* J = 13 */
(PID.TID 0000.0001)                 1.289260168156375E+04,      /* J = 14 */
(PID.TID 0000.0001)                 1.294169737336005E+04,      /* J = 15 */
(PID.TID 0000.0001)                 1.299071983429612E+04,      /* J = 16 */
(PID.TID 0000.0001)                 1.303966782973976E+04,      /* J = 17 */
(PID.TID 0000.0001)                 1.308854013112858E+04,      /* J = 18 */
(PID.TID 0000.0001)                 1.313733551341630E+04,      /* J = 19 */
(PID.TID 0000.0001)                 1.318605275657557E+04,      /* J = 20 */
(PID.TID 0000.0001)                 1.323469064525714E+04,      /* J = 21 */
(PID.TID 0000.0001)                 1.328324796793894E+04,      /* J = 22 */
(PID.TID 0000.0001)                 1.333172351943878E+04,      /* J = 23 */
(PID.TID 0000.0001)                 1.338011609672818E+04,      /* J = 24 */
(PID.TID 0000.0001)                 1.342842450297648E+04,      /* J = 25 */
(PID.TID 0000.0001)                 1.347664754448975E+04,      /* J = 26 */
(PID.TID 0000.0001)                 1.352478403309773E+04,      /* J = 27 */
(PID.TID 0000.0001)                 1.357283278399672E+04,      /* J = 28 */
(PID.TID 0000.0001)                 1.362079261758662E+04,      /* J = 29 */
(PID.TID 0000.0001)                 1.366866235568675E+04       /* J = 30 */
(PID.TID 0000.0001)     ;
(PID.TID 0000.0001) rA  =  /* rA (:,1,:,1) ( units: m^2 ) */
(PID.TID 0000.0001)                 8.426856340911950E+07,      /* I =  1 */
(PID.TID 0000.0001)                 8.431523717330492E+07,      /* I =  2 */
(PID.TID 0000.0001)                 8.436062385786548E+07,      /* I =  3 */
(PID.TID 0000.0001)                 8.440472971565914E+07,      /* I =  4 */
(PID.TID 0000.0001)                 8.444755517916021E+07,      /* I =  5 */
(PID.TID 0000.0001)                 8.448910772657055E+07,      /* I =  6 */
(PID.TID 0000.0001)                 8.452939157451475E+07,      /* I =  7 */
(PID.TID 0000.0001)                 8.456840881328543E+07,      /* I =  8 */
(PID.TID 0000.0001)                 8.460616765989468E+07,      /* I =  9 */
(PID.TID 0000.0001)                 8.464266371752025E+07,      /* I = 10 */
(PID.TID 0000.0001)                 8.467791102355786E+07,      /* I = 11 */
(PID.TID 0000.0001)                 8.471190572177814E+07,      /* I = 12 */
(PID.TID 0000.0001)                 8.474465734463593E+07,      /* I = 13 */
(PID.TID 0000.0001)                 8.477616585609175E+07,      /* I = 14 */
(PID.TID 0000.0001)                 8.480643233733138E+07,      /* I = 15 */
(PID.TID 0000.0001)                 8.483546451883334E+07,      /* I = 16 */
(PID.TID 0000.0001)                 8.486326495940405E+07,      /* I = 17 */
(PID.TID 0000.0001)                 8.488983263191700E+07,      /* I = 18 */
(PID.TID 0000.0001)                 8.491517447398111E+07,      /* I = 19 */
(PID.TID 0000.0001)                 8.493929108024859E+07,      /* I = 20 */
(PID.TID 0000.0001)                 8.496218819902396E+07,      /* I = 21 */
(PID.TID 0000.0001)                 8.498386433466685E+07,      /* I = 22 */
(PID.TID 0000.0001)                 8.500432231628014E+07,      /* I = 23 */
(PID.TID 0000.0001)                 8.502356745969406E+07,      /* I = 24 */
(PID.TID 0000.0001)                 8.504159754847768E+07,      /* I = 25 */
(PID.TID 0000.0001)                 8.505841863727155E+07,      /* I = 26 */
(PID.TID 0000.0001)                 8.507402978904794E+07,      /* I = 27 */
(PID.TID 0000.0001)                 8.508843511231294E+07,      /* I = 28 */
(PID.TID 0000.0001)                 8.510163195816132E+07,      /* I = 29 */
(PID.TID 0000.0001)                 8.511362773271585E+07       /* I = 30 */
(PID.TID 0000.0001)     ;
(PID.TID 0000.0001) rA  =  /* rA (1,:,1,:) ( units: m^2 ) */
(PID.TID 0000.0001)                 8.426856340911950E+07,      /* J =  1 */
(PID.TID 0000.0001)                 8.511821599696685E+07,      /* J =  2 */
(PID.TID 0000.0001)                 8.597819171086520E+07,      /* J =  3 */
(PID.TID 0000.0001)                 8.684855619681278E+07,      /* J =  4 */
(PID.TID 0000.0001)                 8.772936922636497E+07,      /* J =  5 */
(PID.TID 0000.0001)                 8.862069637344106E+07,      /* J =  6 */
(PID.TID 0000.0001)                 8.952259928365177E+07,      /* J =  7 */
(PID.TID 0000.0001)                 9.043514012518111E+07,      /* J =  8 */
(PID.TID 0000.0001)                 9.135838315650551E+07,      /* J =  9 */
(PID.TID 0000.0001)                 9.229238782482465E+07,      /* J = 10 */
(PID.TID 0000.0001)                 9.323721341516033E+07,      /* J = 11 */
(PID.TID 0000.0001)                 9.419292045589794E+07,      /* J = 12 */
(PID.TID 0000.0001)                 9.515957179997252E+07,      /* J = 13 */
(PID.TID 0000.0001)                 9.613722496646897E+07,      /* J = 14 */
(PID.TID 0000.0001)                 9.712593776278849E+07,      /* J = 15 */
(PID.TID 0000.0001)                 9.812576817652987E+07,      /* J = 16 */
(PID.TID 0000.0001)                 9.913677392499548E+07,      /* J = 17 */
(PID.TID 0000.0001)                 1.001590158248870E+08,      /* J = 18 */
(PID.TID 0000.0001)                 1.011925474489612E+08,      /* J = 19 */
(PID.TID 0000.0001)                 1.022374279380818E+08,      /* J = 20 */
(PID.TID 0000.0001)                 1.032937129012387E+08,      /* J = 21 */
(PID.TID 0000.0001)                 1.043614567400979E+08,      /* J = 22 */
(PID.TID 0000.0001)                 1.054407171359222E+08,      /* J = 23 */
(PID.TID 0000.0001)                 1.065315487606739E+08,      /* J = 24 */
(PID.TID 0000.0001)                 1.076340069710664E+08,      /* J = 25 */
(PID.TID 0000.0001)                 1.087481455741134E+08,      /* J = 26 */
(PID.TID 0000.0001)                 1.098740187732633E+08,      /* J = 27 */
(PID.TID 0000.0001)                 1.110116831866129E+08,      /* J = 28 */
(PID.TID 0000.0001)                 1.121611873774249E+08,      /* J = 29 */
(PID.TID 0000.0001)                 1.133225888467642E+08       /* J = 30 */
(PID.TID 0000.0001)     ;
(PID.TID 0000.0001) rAw =  /* rAw(:,1,:,1) ( units: m^2 ) */
(PID.TID 0000.0001)                 8.424474178637986E+07,      /* I =  1 */
(PID.TID 0000.0001)                 8.429206177532245E+07,      /* I =  2 */
(PID.TID 0000.0001)                 8.433809084643058E+07,      /* I =  3 */
(PID.TID 0000.0001)                 8.438283644186656E+07,      /* I =  4 */
(PID.TID 0000.0001)                 8.442630238182028E+07,      /* I =  5 */
(PID.TID 0000.0001)                 8.446849008985299E+07,      /* I =  6 */
(PID.TID 0000.0001)                 8.450940868396506E+07,      /* I =  7 */
(PID.TID 0000.0001)                 8.454905686673349E+07,      /* I =  8 */
(PID.TID 0000.0001)                 8.458744647714287E+07,      /* I =  9 */
(PID.TID 0000.0001)                 8.462457245163968E+07,      /* I = 10 */
(PID.TID 0000.0001)                 8.466044390822423E+07,      /* I = 11 */
(PID.TID 0000.0001)                 8.469506441480967E+07,      /* I = 12 */
(PID.TID 0000.0001)                 8.472843732307202E+07,      /* I = 13 */
(PID.TID 0000.0001)                 8.476056598468728E+07,      /* I = 14 */
(PID.TID 0000.0001)                 8.479145430994412E+07,      /* I = 15 */
(PID.TID 0000.0001)                 8.482110274933663E+07,      /* I = 16 */
(PID.TID 0000.0001)                 8.484951834859231E+07,      /* I = 17 */
(PID.TID 0000.0001)                 8.487670251325271E+07,      /* I = 18 */
(PID.TID 0000.0001)                 8.490265702727444E+07,      /* I = 19 */
(PID.TID 0000.0001)                 8.492738614332165E+07,      /* I = 20 */
(PID.TID 0000.0001)                 8.495089213188455E+07,      /* I = 21 */
(PID.TID 0000.0001)                 8.497317789414503E+07,      /* I = 22 */
(PID.TID 0000.0001)                 8.499424546633638E+07,      /* I = 23 */
(PID.TID 0000.0001)                 8.501409701083022E+07,      /* I = 24 */
(PID.TID 0000.0001)                 8.503273364485189E+07,      /* I = 25 */
(PID.TID 0000.0001)                 8.505015938680860E+07,      /* I = 26 */
(PID.TID 0000.0001)                 8.506637511966884E+07,      /* I = 27 */
(PID.TID 0000.0001)                 8.508138284362628E+07,      /* I = 28 */
(PID.TID 0000.0001)                 8.509518419847941E+07,      /* I = 29 */
(PID.TID 0000.0001)                 8.510778104026389E+07       /* I = 30 */
(PID.TID 0000.0001)     ;
(PID.TID 0000.0001) rAw =  /* rAw(1,:,1,:) ( units: m^2 ) */
(PID.TID 0000.0001)                 8.424474178637986E+07,      /* J =  1 */
(PID.TID 0000.0001)                 8.509438386870512E+07,      /* J =  2 */
(PID.TID 0000.0001)                 8.595434271610487E+07,      /* J =  3 */
(PID.TID 0000.0001)                 8.682468611892919E+07,      /* J =  4 */
(PID.TID 0000.0001)                 8.770547246121171E+07,      /* J =  5 */
(PID.TID 0000.0001)                 8.859676713667403E+07,      /* J =  6 */
(PID.TID 0000.0001)                 8.949863498042507E+07,      /* J =  7 */
(PID.TID 0000.0001)                 9.041113509728898E+07,      /* J =  8 */
(PID.TID 0000.0001)                 9.133432673624799E+07,      /* J =  9 */
(PID.TID 0000.0001)                 9.226827476845059E+07,      /* J = 10 */
(PID.TID 0000.0001)                 9.321304013673677E+07,      /* J = 11 */
(PID.TID 0000.0001)                 9.416867736891077E+07,      /* J = 12 */
(PID.TID 0000.0001)                 9.513525007473759E+07,      /* J = 13 */
(PID.TID 0000.0001)                 9.611281865646438E+07,      /* J = 14 */
(PID.TID 0000.0001)                 9.710143967812860E+07,      /* J = 15 */
(PID.TID 0000.0001)                 9.810116846040407E+07,      /* J = 16 */
(PID.TID 0000.0001)                 9.911206454058927E+07,      /* J = 17 */
(PID.TID 0000.0001)                 1.001341872757850E+08,      /* J = 18 */
(PID.TID 0000.0001)                 1.011675913379537E+08,      /* J = 19 */
(PID.TID 0000.0001)                 1.022123323721249E+08,      /* J = 20 */
(PID.TID 0000.0001)                 1.032684684740158E+08,      /* J = 21 */
(PID.TID 0000.0001)                 1.043360538110357E+08,      /* J = 22 */
(PID.TID 0000.0001)                 1.054151461185064E+08,      /* J = 23 */
(PID.TID 0000.0001)                 1.065057957436472E+08,      /* J = 24 */
(PID.TID 0000.0001)                 1.076080610704916E+08,      /* J = 25 */
(PID.TID 0000.0001)                 1.087219963745672E+08,      /* J = 26 */
(PID.TID 0000.0001)                 1.098476504894330E+08,      /* J = 27 */
(PID.TID 0000.0001)                 1.109850869167354E+08,      /* J = 28 */
(PID.TID 0000.0001)                 1.121343490660845E+08,      /* J = 29 */
(PID.TID 0000.0001)                 1.132954945106247E+08       /* J = 30 */
(PID.TID 0000.0001)     ;
(PID.TID 0000.0001) rAs =  /* rAs(:,1,:,1) ( units: m^2 ) */
(PID.TID 0000.0001)                 8.384758710072803E+07,      /* I =  1 */
(PID.TID 0000.0001)                 8.389425243166414E+07,      /* I =  2 */
(PID.TID 0000.0001)                 8.393963014238253E+07,      /* I =  3 */
(PID.TID 0000.0001)                 8.398372700831422E+07,      /* I =  4 */
(PID.TID 0000.0001)                 8.402654457915889E+07,      /* I =  5 */
(PID.TID 0000.0001)                 8.406808921589307E+07,      /* I =  6 */
(PID.TID 0000.0001)                 8.410836318900691E+07,      /* I =  7 */
(PID.TID 0000.0001)                 8.414737152601442E+07,      /* I =  8 */
(PID.TID 0000.0001)                 8.418512094828738E+07,      /* I =  9 */
(PID.TID 0000.0001)                 8.422160988810641E+07,      /* I = 10 */
(PID.TID 0000.0001)                 8.425684809416345E+07,      /* I = 11 */
(PID.TID 0000.0001)                 8.429083547635977E+07,      /* I = 12 */
(PID.TID 0000.0001)                 8.432357657567571E+07,      /* I = 13 */
(PID.TID 0000.0001)                 8.435507645566481E+07,      /* I = 14 */
(PID.TID 0000.0001)                 8.438533542266309E+07,      /* I = 15 */
(PID.TID 0000.0001)                 8.441436010794346E+07,      /* I = 16 */
(PID.TID 0000.0001)                 8.444215301625305E+07,      /* I = 17 */
(PID.TID 0000.0001)                 8.446871310244557E+07,      /* I = 18 */
(PID.TID 0000.0001)                 8.449404847541460E+07,      /* I = 19 */
(PID.TID 0000.0001)                 8.451815753140119E+07,      /* I = 20 */
(PID.TID 0000.0001)                 8.454104825316052E+07,      /* I = 21 */
(PID.TID 0000.0001)                 8.456271790168858E+07,      /* I = 22 */
(PID.TID 0000.0001)                 8.458316977460206E+07,      /* I = 23 */
(PID.TID 0000.0001)                 8.460240924179049E+07,      /* I = 24 */
(PID.TID 0000.0001)                 8.462043424900080E+07,      /* I = 25 */
(PID.TID 0000.0001)                 8.463724969760871E+07,      /* I = 26 */
(PID.TID 0000.0001)                 8.465285533533749E+07,      /* I = 27 */
(PID.TID 0000.0001)                 8.466725615366161E+07,      /* I = 28 */
(PID.TID 0000.0001)                 8.468045002624902E+07,      /* I = 29 */
(PID.TID 0000.0001)                 8.469244075526977E+07       /* I = 30 */
(PID.TID 0000.0001)     ;
(PID.TID 0000.0001) rAs =  /* rAs(1,:,1,:) ( units: m^2 ) */
(PID.TID 0000.0001)                 8.384758710072803E+07,      /* J =  1 */
(PID.TID 0000.0001)                 8.469210293876420E+07,      /* J =  2 */
(PID.TID 0000.0001)                 8.554690952133641E+07,      /* J =  3 */
(PID.TID 0000.0001)                 8.641207220612670E+07,      /* J =  4 */
(PID.TID 0000.0001)                 8.728765157557982E+07,      /* J =  5 */
(PID.TID 0000.0001)                 8.817371513172972E+07,      /* J =  6 */
(PID.TID 0000.0001)                 8.907032224969694E+07,      /* J =  7 */
(PID.TID 0000.0001)                 8.997753556617934E+07,      /* J =  8 */
(PID.TID 0000.0001)                 9.089541970004863E+07,      /* J =  9 */
(PID.TID 0000.0001)                 9.182403725196308E+07,      /* J = 10 */
(PID.TID 0000.0001)                 9.276344384893246E+07,      /* J = 11 */
(PID.TID 0000.0001)                 9.371370218171391E+07,      /* J = 12 */
(PID.TID 0000.0001)                 9.467487515730162E+07,      /* J = 13 */
(PID.TID 0000.0001)                 9.564702011458293E+07,      /* J = 14 */
(PID.TID 0000.0001)                 9.663019523937404E+07,      /* J = 15 */
(PID.TID 0000.0001)                 9.762445896976787E+07,      /* J = 16 */
(PID.TID 0000.0001)                 9.862986999613397E+07,      /* J = 17 */
(PID.TID 0000.0001)                 9.964648745933603E+07,      /* J = 18 */
(PID.TID 0000.0001)                 1.006743670224234E+08,      /* J = 19 */
(PID.TID 0000.0001)                 1.017135652314138E+08,      /* J = 20 */
(PID.TID 0000.0001)                 1.027641417317243E+08,      /* J = 21 */
(PID.TID 0000.0001)                 1.038261489248269E+08,      /* J = 22 */
(PID.TID 0000.0001)                 1.048996433927791E+08,      /* J = 23 */
(PID.TID 0000.0001)                 1.059846838439701E+08,      /* J = 24 */
(PID.TID 0000.0001)                 1.070813203733423E+08,      /* J = 25 */
(PID.TID 0000.0001)                 1.081896133290836E+08,      /* J = 26 */
(PID.TID 0000.0001)                 1.093096115087133E+08,      /* J = 27 */
(PID.TID 0000.0001)                 1.104413743053720E+08,      /* J = 28 */
(PID.TID 0000.0001)                 1.115849520842985E+08,      /* J = 29 */
(PID.TID 0000.0001)                 1.127403971929055E+08       /* J = 30 */
(PID.TID 0000.0001)     ;
(PID.TID 0000.0001) globalArea = /* Integrated horizontal Area (m^2) */
(PID.TID 0000.0001)                 3.589730451589628E+14
(PID.TID 0000.0001)     ;
(PID.TID 0000.0001) hasWetCSCorners = /* Domain contains CS corners (True/False) */
(PID.TID 0000.0001)                   F
(PID.TID 0000.0001)     ;
(PID.TID 0000.0001) // =======================================================
(PID.TID 0000.0001) // End of Model config. summary
(PID.TID 0000.0001) // =======================================================
(PID.TID 0000.0001) 
(PID.TID 0000.0001) == Packages configuration : Check & print summary ==
(PID.TID 0000.0001) 
(PID.TID 0000.0001) GGL90_CHECK: #define ALLOW_GGL90
(PID.TID 0000.0001) GGL90_CHECK: Some form of convection has been enabled
(PID.TID 0000.0001) GMREDI_CHECK: #define GMREDI
(PID.TID 0000.0001) GM_AdvForm =     /* if FALSE => use SkewFlux Form */
(PID.TID 0000.0001)                   T
(PID.TID 0000.0001)     ;
(PID.TID 0000.0001) GM_InMomAsStress = /* if TRUE => apply as Eddy Stress */
(PID.TID 0000.0001)                   F
(PID.TID 0000.0001)     ;
(PID.TID 0000.0001) GM_AdvSeparate = /* Calc Bolus & Euler Adv. separately */
(PID.TID 0000.0001)                   F
(PID.TID 0000.0001)     ;
(PID.TID 0000.0001) GM_ExtraDiag =   /* Tensor Extra Diag (line 1&2) non 0 */
(PID.TID 0000.0001)                   T
(PID.TID 0000.0001)     ;
(PID.TID 0000.0001) GM_isopycK =    /* Background Isopyc. Diffusivity [m^2/s] */
(PID.TID 0000.0001)                 1.000000000000000E+02
(PID.TID 0000.0001)     ;
(PID.TID 0000.0001) GM_skewflx*K =  /* Background GM_SkewFlx Diffusivity [m^2/s] */
(PID.TID 0000.0001)                 0.000000000000000E+00
(PID.TID 0000.0001)     ;
(PID.TID 0000.0001) GM_advec*K =    /* Backg. GM-Advec(=Bolus) Diffusivity [m^2/s]*/
(PID.TID 0000.0001)                 1.000000000000000E+02
(PID.TID 0000.0001)     ;
(PID.TID 0000.0001) GM_Kmin_horiz = /* Minimum Horizontal Diffusivity [m^2/s] */
(PID.TID 0000.0001)                 1.000000000000000E+01
(PID.TID 0000.0001)     ;
(PID.TID 0000.0001) GM_Visbeck_alpha = /* Visbeck alpha coeff. [-] */
(PID.TID 0000.0001)                 0.000000000000000E+00
(PID.TID 0000.0001)     ;
(PID.TID 0000.0001) GM_Small_Number =  /* epsilon used in slope calc */
(PID.TID 0000.0001)                 9.999999999999999E-21
(PID.TID 0000.0001)     ;
(PID.TID 0000.0001) GM_slopeSqCutoff = /* Slope^2 cut-off value */
(PID.TID 0000.0001)                 1.000000000000000E+08
(PID.TID 0000.0001)     ;
(PID.TID 0000.0001) GM_taper_scheme =  /* Type of Tapering/Clipping scheme */
(PID.TID 0000.0001)               'stableGmAdjTap                          '
(PID.TID 0000.0001)     ;
(PID.TID 0000.0001) GM_maxSlope =  /* Maximum Slope (Tapering/Clipping) */
(PID.TID 0000.0001)                 4.000000000000000E-03
(PID.TID 0000.0001)     ;
(PID.TID 0000.0001) GM_facTrL2dz = /* Minimum Trans.Layer Thick. (factor of dz) */
(PID.TID 0000.0001)                 1.000000000000000E+00
(PID.TID 0000.0001)     ;
(PID.TID 0000.0001) GM_facTrL2ML = /* Max.Trans.Layer Thick. (factor of MxL Depth)*/
(PID.TID 0000.0001)                 5.000000000000000E+00
(PID.TID 0000.0001)     ;
(PID.TID 0000.0001) GM_maxTransLay = /* Maximum Transition Layer Thickness [m] */
(PID.TID 0000.0001)                 5.000000000000000E+02
(PID.TID 0000.0001)     ;
(PID.TID 0000.0001) GM_UseBVP = /* if TRUE => use bvp a la Ferrari et al. (2010) */
(PID.TID 0000.0001)                   F
(PID.TID 0000.0001)     ;
(PID.TID 0000.0001) GM_BVP_ModeNumber = /* Vertical mode number for BVP wave speed */
(PID.TID 0000.0001)                       1
(PID.TID 0000.0001)     ;
(PID.TID 0000.0001) GM_BVP_cMin = /* Minimum wave speed for BVP [m/s] */
(PID.TID 0000.0001)                 1.000000000000000E-01
(PID.TID 0000.0001)     ;
(PID.TID 0000.0001) GM_useSubMeso = /* if TRUE => use Sub-Meso param. (B.Fox-Kemper) */
(PID.TID 0000.0001)                   F
(PID.TID 0000.0001)     ;
(PID.TID 0000.0001) subMeso_Ceff = /* efficiency coeff. of Mixed-Layer Eddies [-] */
(PID.TID 0000.0001)                 7.000000000000001E-02
(PID.TID 0000.0001)     ;
(PID.TID 0000.0001) subMeso_invTau = /* inverse of Sub-Meso mixing time-scale [/s] */
(PID.TID 0000.0001)                 2.000000000000000E-06
(PID.TID 0000.0001)     ;
(PID.TID 0000.0001) subMeso_LfMin = /* minimum length-scale "Lf" [m] */
(PID.TID 0000.0001)                 1.000000000000000E+03
(PID.TID 0000.0001)     ;
(PID.TID 0000.0001) subMeso_Lmax = /* maximum grid-scale length [m] */
(PID.TID 0000.0001)                 1.100000000000000E+05
(PID.TID 0000.0001)     ;
(PID.TID 0000.0001) EXF_CHECK: #define ALLOW_EXF
(PID.TID 0000.0001) PTRACERS_CHECK: #define ALLOW_PTRACERS
(PID.TID 0000.0001) // ===================================
(PID.TID 0000.0001) // PTRACERS parameters
(PID.TID 0000.0001) // ===================================
(PID.TID 0000.0001) PTRACERS_numInUse = /* number of tracers */
(PID.TID 0000.0001)                      39
(PID.TID 0000.0001)     ;
(PID.TID 0000.0001) PTRACERS_Iter0 = /* timestep number when tracers are initialized */
(PID.TID 0000.0001)                       0
(PID.TID 0000.0001)     ;
(PID.TID 0000.0001) PTRACERS_startAllTrc =/* all tracers start @ startTime */
(PID.TID 0000.0001)                   T
(PID.TID 0000.0001)     ;
(PID.TID 0000.0001) PTRACERS_doAB_onGpTr =/* apply AB on Tendencies (rather than on Tracers) */
(PID.TID 0000.0001)                   F
(PID.TID 0000.0001)     ;
(PID.TID 0000.0001) PTRACERS_addSrelax2EmP =/* add Salt relaxation to EmP */
(PID.TID 0000.0001)                   F
(PID.TID 0000.0001)     ;
(PID.TID 0000.0001) PTRACERS_dTLev =   /* Ptracer timestep ( s ) */
(PID.TID 0000.0001)    50 @  1.200000000000000E+03              /* K =  1: 50 */
(PID.TID 0000.0001)     ;
(PID.TID 0000.0001) PTRACERS_monitorFreq = /* Frequency^-1 for monitor output (s) */
(PID.TID 0000.0001)                 1.000000000000000E+00
(PID.TID 0000.0001)     ;
(PID.TID 0000.0001) PTRACERS_dumpFreq = /* Frequency^-1 for snapshot output (s) */
(PID.TID 0000.0001)                 0.000000000000000E+00
(PID.TID 0000.0001)     ;
(PID.TID 0000.0001) PTRACERS_taveFreq = /* Frequency^-1 for time-Aver. output (s) */
(PID.TID 0000.0001)                 0.000000000000000E+00
(PID.TID 0000.0001)     ;
(PID.TID 0000.0001) PTRACERS_useRecords = /* all tracers in 1 file */
(PID.TID 0000.0001)                   F
(PID.TID 0000.0001)     ;
(PID.TID 0000.0001) PTRACERS_timeave_mnc = /* use MNC for Tave output */
(PID.TID 0000.0001)                   F
(PID.TID 0000.0001)     ;
(PID.TID 0000.0001) PTRACERS_snapshot_mnc = /* use MNC for snapshot output */
(PID.TID 0000.0001)                   F
(PID.TID 0000.0001)     ;
(PID.TID 0000.0001) PTRACERS_pickup_write_mnc = /* use MNC for writing pickups */
(PID.TID 0000.0001)                   F
(PID.TID 0000.0001)     ;
(PID.TID 0000.0001) PTRACERS_pickup_read_mnc = /* use MNC for reading pickups */
(PID.TID 0000.0001)                   F
(PID.TID 0000.0001)     ;
(PID.TID 0000.0001)  -----------------------------------
(PID.TID 0000.0001)  tracer number :    1
(PID.TID 0000.0001) PTRACERS_names = /* Tracer short name */
(PID.TID 0000.0001)               'PO4'
(PID.TID 0000.0001)     ;
(PID.TID 0000.0001) PTRACERS_long_names = /* Tracer long name */
(PID.TID 0000.0001)               ''
(PID.TID 0000.0001)     ;
(PID.TID 0000.0001) PTRACERS_ioLabel = /* tracer IO Label */
(PID.TID 0000.0001)               '01'
(PID.TID 0000.0001)     ;
(PID.TID 0000.0001) PTRACERS_advScheme = /* Advection Scheme */
(PID.TID 0000.0001)                      33
(PID.TID 0000.0001)     ;
(PID.TID 0000.0001) PTRACERS_SOM_Advection = /* tracer uses SOM advection scheme */
(PID.TID 0000.0001)                   F
(PID.TID 0000.0001)     ;
(PID.TID 0000.0001) PTRACERS_ImplVertAdv = /* implicit vert. advection flag */
(PID.TID 0000.0001)                   F
(PID.TID 0000.0001)     ;
(PID.TID 0000.0001) PTRACERS_MultiDimAdv = /* tracer uses Multi-Dim advection */
(PID.TID 0000.0001)                   T
(PID.TID 0000.0001)     ;
(PID.TID 0000.0001) PTRACERS_AdamsBashGtr = /* apply AB on tracer tendency */
(PID.TID 0000.0001)                   F
(PID.TID 0000.0001)     ;
(PID.TID 0000.0001) PTRACERS_AdamsBash_Tr = /* apply AB on passive tracer */
(PID.TID 0000.0001)                   F
(PID.TID 0000.0001)     ;
(PID.TID 0000.0001) PTRACERS_diffKh = /* Laplacian Diffusivity */
(PID.TID 0000.0001)                 0.000000000000000E+00
(PID.TID 0000.0001)     ;
(PID.TID 0000.0001) PTRACERS_diffK4 = /* Biharmonic Diffusivity */
(PID.TID 0000.0001)                 0.000000000000000E+00
(PID.TID 0000.0001)     ;
(PID.TID 0000.0001) PTRACERS_diffKrNr = /* Vertical Diffusivity */
(PID.TID 0000.0001)    50 @  1.000000000000000E-05              /* K =  1: 50 */
(PID.TID 0000.0001)     ;
(PID.TID 0000.0001) PTRACERS_useGMRedi = /* apply GM-Redi */
(PID.TID 0000.0001)                   T
(PID.TID 0000.0001)     ;
(PID.TID 0000.0001) PTRACERS_useDWNSLP = /* apply DOWN-SLOPE Flow */
(PID.TID 0000.0001)                   F
(PID.TID 0000.0001)     ;
(PID.TID 0000.0001) PTRACERS_useKPP = /* apply KPP scheme */
(PID.TID 0000.0001)                   F
(PID.TID 0000.0001)     ;
(PID.TID 0000.0001) PTRACERS_ref = /* Reference vertical profile */
(PID.TID 0000.0001)    50 @  0.000000000000000E+00              /* K =  1: 50 */
(PID.TID 0000.0001)     ;
(PID.TID 0000.0001) PTRACERS_EvPrRn =/* tracer conc. in Evap. & Rain */
(PID.TID 0000.0001)                 1.234567000000000E+05
(PID.TID 0000.0001)     ;
(PID.TID 0000.0001)  -----------------------------------
(PID.TID 0000.0001)  tracer number :    2
(PID.TID 0000.0001) PTRACERS_names = /* Tracer short name */
(PID.TID 0000.0001)               'NO3'
(PID.TID 0000.0001)     ;
(PID.TID 0000.0001) PTRACERS_long_names = /* Tracer long name */
(PID.TID 0000.0001)               ''
(PID.TID 0000.0001)     ;
(PID.TID 0000.0001) PTRACERS_ioLabel = /* tracer IO Label */
(PID.TID 0000.0001)               '02'
(PID.TID 0000.0001)     ;
(PID.TID 0000.0001) PTRACERS_advScheme = /* Advection Scheme */
(PID.TID 0000.0001)                      33
(PID.TID 0000.0001)     ;
(PID.TID 0000.0001) PTRACERS_SOM_Advection = /* tracer uses SOM advection scheme */
(PID.TID 0000.0001)                   F
(PID.TID 0000.0001)     ;
(PID.TID 0000.0001) PTRACERS_ImplVertAdv = /* implicit vert. advection flag */
(PID.TID 0000.0001)                   F
(PID.TID 0000.0001)     ;
(PID.TID 0000.0001) PTRACERS_MultiDimAdv = /* tracer uses Multi-Dim advection */
(PID.TID 0000.0001)                   T
(PID.TID 0000.0001)     ;
(PID.TID 0000.0001) PTRACERS_AdamsBashGtr = /* apply AB on tracer tendency */
(PID.TID 0000.0001)                   F
(PID.TID 0000.0001)     ;
(PID.TID 0000.0001) PTRACERS_AdamsBash_Tr = /* apply AB on passive tracer */
(PID.TID 0000.0001)                   F
(PID.TID 0000.0001)     ;
(PID.TID 0000.0001) PTRACERS_diffKh = /* Laplacian Diffusivity */
(PID.TID 0000.0001)                 0.000000000000000E+00
(PID.TID 0000.0001)     ;
(PID.TID 0000.0001) PTRACERS_diffK4 = /* Biharmonic Diffusivity */
(PID.TID 0000.0001)                 0.000000000000000E+00
(PID.TID 0000.0001)     ;
(PID.TID 0000.0001) PTRACERS_diffKrNr = /* Vertical Diffusivity */
(PID.TID 0000.0001)    50 @  1.000000000000000E-05              /* K =  1: 50 */
(PID.TID 0000.0001)     ;
(PID.TID 0000.0001) PTRACERS_useGMRedi = /* apply GM-Redi */
(PID.TID 0000.0001)                   T
(PID.TID 0000.0001)     ;
(PID.TID 0000.0001) PTRACERS_useDWNSLP = /* apply DOWN-SLOPE Flow */
(PID.TID 0000.0001)                   F
(PID.TID 0000.0001)     ;
(PID.TID 0000.0001) PTRACERS_useKPP = /* apply KPP scheme */
(PID.TID 0000.0001)                   F
(PID.TID 0000.0001)     ;
(PID.TID 0000.0001) PTRACERS_ref = /* Reference vertical profile */
(PID.TID 0000.0001)    50 @  0.000000000000000E+00              /* K =  1: 50 */
(PID.TID 0000.0001)     ;
(PID.TID 0000.0001) PTRACERS_EvPrRn =/* tracer conc. in Evap. & Rain */
(PID.TID 0000.0001)                 1.234567000000000E+05
(PID.TID 0000.0001)     ;
(PID.TID 0000.0001)  -----------------------------------
(PID.TID 0000.0001)  tracer number :    3
(PID.TID 0000.0001) PTRACERS_names = /* Tracer short name */
(PID.TID 0000.0001)               'FeT'
(PID.TID 0000.0001)     ;
(PID.TID 0000.0001) PTRACERS_long_names = /* Tracer long name */
(PID.TID 0000.0001)               ''
(PID.TID 0000.0001)     ;
(PID.TID 0000.0001) PTRACERS_ioLabel = /* tracer IO Label */
(PID.TID 0000.0001)               '03'
(PID.TID 0000.0001)     ;
(PID.TID 0000.0001) PTRACERS_advScheme = /* Advection Scheme */
(PID.TID 0000.0001)                      33
(PID.TID 0000.0001)     ;
(PID.TID 0000.0001) PTRACERS_SOM_Advection = /* tracer uses SOM advection scheme */
(PID.TID 0000.0001)                   F
(PID.TID 0000.0001)     ;
(PID.TID 0000.0001) PTRACERS_ImplVertAdv = /* implicit vert. advection flag */
(PID.TID 0000.0001)                   F
(PID.TID 0000.0001)     ;
(PID.TID 0000.0001) PTRACERS_MultiDimAdv = /* tracer uses Multi-Dim advection */
(PID.TID 0000.0001)                   T
(PID.TID 0000.0001)     ;
(PID.TID 0000.0001) PTRACERS_AdamsBashGtr = /* apply AB on tracer tendency */
(PID.TID 0000.0001)                   F
(PID.TID 0000.0001)     ;
(PID.TID 0000.0001) PTRACERS_AdamsBash_Tr = /* apply AB on passive tracer */
(PID.TID 0000.0001)                   F
(PID.TID 0000.0001)     ;
(PID.TID 0000.0001) PTRACERS_diffKh = /* Laplacian Diffusivity */
(PID.TID 0000.0001)                 0.000000000000000E+00
(PID.TID 0000.0001)     ;
(PID.TID 0000.0001) PTRACERS_diffK4 = /* Biharmonic Diffusivity */
(PID.TID 0000.0001)                 0.000000000000000E+00
(PID.TID 0000.0001)     ;
(PID.TID 0000.0001) PTRACERS_diffKrNr = /* Vertical Diffusivity */
(PID.TID 0000.0001)    50 @  1.000000000000000E-05              /* K =  1: 50 */
(PID.TID 0000.0001)     ;
(PID.TID 0000.0001) PTRACERS_useGMRedi = /* apply GM-Redi */
(PID.TID 0000.0001)                   T
(PID.TID 0000.0001)     ;
(PID.TID 0000.0001) PTRACERS_useDWNSLP = /* apply DOWN-SLOPE Flow */
(PID.TID 0000.0001)                   F
(PID.TID 0000.0001)     ;
(PID.TID 0000.0001) PTRACERS_useKPP = /* apply KPP scheme */
(PID.TID 0000.0001)                   F
(PID.TID 0000.0001)     ;
(PID.TID 0000.0001) PTRACERS_ref = /* Reference vertical profile */
(PID.TID 0000.0001)    50 @  0.000000000000000E+00              /* K =  1: 50 */
(PID.TID 0000.0001)     ;
(PID.TID 0000.0001) PTRACERS_EvPrRn =/* tracer conc. in Evap. & Rain */
(PID.TID 0000.0001)                 1.234567000000000E+05
(PID.TID 0000.0001)     ;
(PID.TID 0000.0001)  -----------------------------------
(PID.TID 0000.0001)  tracer number :    4
(PID.TID 0000.0001) PTRACERS_names = /* Tracer short name */
(PID.TID 0000.0001)               'SiO2'
(PID.TID 0000.0001)     ;
(PID.TID 0000.0001) PTRACERS_long_names = /* Tracer long name */
(PID.TID 0000.0001)               ''
(PID.TID 0000.0001)     ;
(PID.TID 0000.0001) PTRACERS_ioLabel = /* tracer IO Label */
(PID.TID 0000.0001)               '04'
(PID.TID 0000.0001)     ;
(PID.TID 0000.0001) PTRACERS_advScheme = /* Advection Scheme */
(PID.TID 0000.0001)                      33
(PID.TID 0000.0001)     ;
(PID.TID 0000.0001) PTRACERS_SOM_Advection = /* tracer uses SOM advection scheme */
(PID.TID 0000.0001)                   F
(PID.TID 0000.0001)     ;
(PID.TID 0000.0001) PTRACERS_ImplVertAdv = /* implicit vert. advection flag */
(PID.TID 0000.0001)                   F
(PID.TID 0000.0001)     ;
(PID.TID 0000.0001) PTRACERS_MultiDimAdv = /* tracer uses Multi-Dim advection */
(PID.TID 0000.0001)                   T
(PID.TID 0000.0001)     ;
(PID.TID 0000.0001) PTRACERS_AdamsBashGtr = /* apply AB on tracer tendency */
(PID.TID 0000.0001)                   F
(PID.TID 0000.0001)     ;
(PID.TID 0000.0001) PTRACERS_AdamsBash_Tr = /* apply AB on passive tracer */
(PID.TID 0000.0001)                   F
(PID.TID 0000.0001)     ;
(PID.TID 0000.0001) PTRACERS_diffKh = /* Laplacian Diffusivity */
(PID.TID 0000.0001)                 0.000000000000000E+00
(PID.TID 0000.0001)     ;
(PID.TID 0000.0001) PTRACERS_diffK4 = /* Biharmonic Diffusivity */
(PID.TID 0000.0001)                 0.000000000000000E+00
(PID.TID 0000.0001)     ;
(PID.TID 0000.0001) PTRACERS_diffKrNr = /* Vertical Diffusivity */
(PID.TID 0000.0001)    50 @  1.000000000000000E-05              /* K =  1: 50 */
(PID.TID 0000.0001)     ;
(PID.TID 0000.0001) PTRACERS_useGMRedi = /* apply GM-Redi */
(PID.TID 0000.0001)                   T
(PID.TID 0000.0001)     ;
(PID.TID 0000.0001) PTRACERS_useDWNSLP = /* apply DOWN-SLOPE Flow */
(PID.TID 0000.0001)                   F
(PID.TID 0000.0001)     ;
(PID.TID 0000.0001) PTRACERS_useKPP = /* apply KPP scheme */
(PID.TID 0000.0001)                   F
(PID.TID 0000.0001)     ;
(PID.TID 0000.0001) PTRACERS_ref = /* Reference vertical profile */
(PID.TID 0000.0001)    50 @  0.000000000000000E+00              /* K =  1: 50 */
(PID.TID 0000.0001)     ;
(PID.TID 0000.0001) PTRACERS_EvPrRn =/* tracer conc. in Evap. & Rain */
(PID.TID 0000.0001)                 1.234567000000000E+05
(PID.TID 0000.0001)     ;
(PID.TID 0000.0001)  -----------------------------------
(PID.TID 0000.0001)  tracer number :    5
(PID.TID 0000.0001) PTRACERS_names = /* Tracer short name */
(PID.TID 0000.0001)               'DOP'
(PID.TID 0000.0001)     ;
(PID.TID 0000.0001) PTRACERS_long_names = /* Tracer long name */
(PID.TID 0000.0001)               ''
(PID.TID 0000.0001)     ;
(PID.TID 0000.0001) PTRACERS_ioLabel = /* tracer IO Label */
(PID.TID 0000.0001)               '05'
(PID.TID 0000.0001)     ;
(PID.TID 0000.0001) PTRACERS_advScheme = /* Advection Scheme */
(PID.TID 0000.0001)                      33
(PID.TID 0000.0001)     ;
(PID.TID 0000.0001) PTRACERS_SOM_Advection = /* tracer uses SOM advection scheme */
(PID.TID 0000.0001)                   F
(PID.TID 0000.0001)     ;
(PID.TID 0000.0001) PTRACERS_ImplVertAdv = /* implicit vert. advection flag */
(PID.TID 0000.0001)                   F
(PID.TID 0000.0001)     ;
(PID.TID 0000.0001) PTRACERS_MultiDimAdv = /* tracer uses Multi-Dim advection */
(PID.TID 0000.0001)                   T
(PID.TID 0000.0001)     ;
(PID.TID 0000.0001) PTRACERS_AdamsBashGtr = /* apply AB on tracer tendency */
(PID.TID 0000.0001)                   F
(PID.TID 0000.0001)     ;
(PID.TID 0000.0001) PTRACERS_AdamsBash_Tr = /* apply AB on passive tracer */
(PID.TID 0000.0001)                   F
(PID.TID 0000.0001)     ;
(PID.TID 0000.0001) PTRACERS_diffKh = /* Laplacian Diffusivity */
(PID.TID 0000.0001)                 0.000000000000000E+00
(PID.TID 0000.0001)     ;
(PID.TID 0000.0001) PTRACERS_diffK4 = /* Biharmonic Diffusivity */
(PID.TID 0000.0001)                 0.000000000000000E+00
(PID.TID 0000.0001)     ;
(PID.TID 0000.0001) PTRACERS_diffKrNr = /* Vertical Diffusivity */
(PID.TID 0000.0001)    50 @  1.000000000000000E-05              /* K =  1: 50 */
(PID.TID 0000.0001)     ;
(PID.TID 0000.0001) PTRACERS_useGMRedi = /* apply GM-Redi */
(PID.TID 0000.0001)                   T
(PID.TID 0000.0001)     ;
(PID.TID 0000.0001) PTRACERS_useDWNSLP = /* apply DOWN-SLOPE Flow */
(PID.TID 0000.0001)                   F
(PID.TID 0000.0001)     ;
(PID.TID 0000.0001) PTRACERS_useKPP = /* apply KPP scheme */
(PID.TID 0000.0001)                   F
(PID.TID 0000.0001)     ;
(PID.TID 0000.0001) PTRACERS_ref = /* Reference vertical profile */
(PID.TID 0000.0001)    50 @  0.000000000000000E+00              /* K =  1: 50 */
(PID.TID 0000.0001)     ;
(PID.TID 0000.0001) PTRACERS_EvPrRn =/* tracer conc. in Evap. & Rain */
(PID.TID 0000.0001)                 1.234567000000000E+05
(PID.TID 0000.0001)     ;
(PID.TID 0000.0001)  -----------------------------------
(PID.TID 0000.0001)  tracer number :    6
(PID.TID 0000.0001) PTRACERS_names = /* Tracer short name */
(PID.TID 0000.0001)               'DON'
(PID.TID 0000.0001)     ;
(PID.TID 0000.0001) PTRACERS_long_names = /* Tracer long name */
(PID.TID 0000.0001)               ''
(PID.TID 0000.0001)     ;
(PID.TID 0000.0001) PTRACERS_ioLabel = /* tracer IO Label */
(PID.TID 0000.0001)               '06'
(PID.TID 0000.0001)     ;
(PID.TID 0000.0001) PTRACERS_advScheme = /* Advection Scheme */
(PID.TID 0000.0001)                      33
(PID.TID 0000.0001)     ;
(PID.TID 0000.0001) PTRACERS_SOM_Advection = /* tracer uses SOM advection scheme */
(PID.TID 0000.0001)                   F
(PID.TID 0000.0001)     ;
(PID.TID 0000.0001) PTRACERS_ImplVertAdv = /* implicit vert. advection flag */
(PID.TID 0000.0001)                   F
(PID.TID 0000.0001)     ;
(PID.TID 0000.0001) PTRACERS_MultiDimAdv = /* tracer uses Multi-Dim advection */
(PID.TID 0000.0001)                   T
(PID.TID 0000.0001)     ;
(PID.TID 0000.0001) PTRACERS_AdamsBashGtr = /* apply AB on tracer tendency */
(PID.TID 0000.0001)                   F
(PID.TID 0000.0001)     ;
(PID.TID 0000.0001) PTRACERS_AdamsBash_Tr = /* apply AB on passive tracer */
(PID.TID 0000.0001)                   F
(PID.TID 0000.0001)     ;
(PID.TID 0000.0001) PTRACERS_diffKh = /* Laplacian Diffusivity */
(PID.TID 0000.0001)                 0.000000000000000E+00
(PID.TID 0000.0001)     ;
(PID.TID 0000.0001) PTRACERS_diffK4 = /* Biharmonic Diffusivity */
(PID.TID 0000.0001)                 0.000000000000000E+00
(PID.TID 0000.0001)     ;
(PID.TID 0000.0001) PTRACERS_diffKrNr = /* Vertical Diffusivity */
(PID.TID 0000.0001)    50 @  1.000000000000000E-05              /* K =  1: 50 */
(PID.TID 0000.0001)     ;
(PID.TID 0000.0001) PTRACERS_useGMRedi = /* apply GM-Redi */
(PID.TID 0000.0001)                   T
(PID.TID 0000.0001)     ;
(PID.TID 0000.0001) PTRACERS_useDWNSLP = /* apply DOWN-SLOPE Flow */
(PID.TID 0000.0001)                   F
(PID.TID 0000.0001)     ;
(PID.TID 0000.0001) PTRACERS_useKPP = /* apply KPP scheme */
(PID.TID 0000.0001)                   F
(PID.TID 0000.0001)     ;
(PID.TID 0000.0001) PTRACERS_ref = /* Reference vertical profile */
(PID.TID 0000.0001)    50 @  0.000000000000000E+00              /* K =  1: 50 */
(PID.TID 0000.0001)     ;
(PID.TID 0000.0001) PTRACERS_EvPrRn =/* tracer conc. in Evap. & Rain */
(PID.TID 0000.0001)                 1.234567000000000E+05
(PID.TID 0000.0001)     ;
(PID.TID 0000.0001)  -----------------------------------
(PID.TID 0000.0001)  tracer number :    7
(PID.TID 0000.0001) PTRACERS_names = /* Tracer short name */
(PID.TID 0000.0001)               'DOFe'
(PID.TID 0000.0001)     ;
(PID.TID 0000.0001) PTRACERS_long_names = /* Tracer long name */
(PID.TID 0000.0001)               ''
(PID.TID 0000.0001)     ;
(PID.TID 0000.0001) PTRACERS_ioLabel = /* tracer IO Label */
(PID.TID 0000.0001)               '07'
(PID.TID 0000.0001)     ;
(PID.TID 0000.0001) PTRACERS_advScheme = /* Advection Scheme */
(PID.TID 0000.0001)                      33
(PID.TID 0000.0001)     ;
(PID.TID 0000.0001) PTRACERS_SOM_Advection = /* tracer uses SOM advection scheme */
(PID.TID 0000.0001)                   F
(PID.TID 0000.0001)     ;
(PID.TID 0000.0001) PTRACERS_ImplVertAdv = /* implicit vert. advection flag */
(PID.TID 0000.0001)                   F
(PID.TID 0000.0001)     ;
(PID.TID 0000.0001) PTRACERS_MultiDimAdv = /* tracer uses Multi-Dim advection */
(PID.TID 0000.0001)                   T
(PID.TID 0000.0001)     ;
(PID.TID 0000.0001) PTRACERS_AdamsBashGtr = /* apply AB on tracer tendency */
(PID.TID 0000.0001)                   F
(PID.TID 0000.0001)     ;
(PID.TID 0000.0001) PTRACERS_AdamsBash_Tr = /* apply AB on passive tracer */
(PID.TID 0000.0001)                   F
(PID.TID 0000.0001)     ;
(PID.TID 0000.0001) PTRACERS_diffKh = /* Laplacian Diffusivity */
(PID.TID 0000.0001)                 0.000000000000000E+00
(PID.TID 0000.0001)     ;
(PID.TID 0000.0001) PTRACERS_diffK4 = /* Biharmonic Diffusivity */
(PID.TID 0000.0001)                 0.000000000000000E+00
(PID.TID 0000.0001)     ;
(PID.TID 0000.0001) PTRACERS_diffKrNr = /* Vertical Diffusivity */
(PID.TID 0000.0001)    50 @  1.000000000000000E-05              /* K =  1: 50 */
(PID.TID 0000.0001)     ;
(PID.TID 0000.0001) PTRACERS_useGMRedi = /* apply GM-Redi */
(PID.TID 0000.0001)                   T
(PID.TID 0000.0001)     ;
(PID.TID 0000.0001) PTRACERS_useDWNSLP = /* apply DOWN-SLOPE Flow */
(PID.TID 0000.0001)                   F
(PID.TID 0000.0001)     ;
(PID.TID 0000.0001) PTRACERS_useKPP = /* apply KPP scheme */
(PID.TID 0000.0001)                   F
(PID.TID 0000.0001)     ;
(PID.TID 0000.0001) PTRACERS_ref = /* Reference vertical profile */
(PID.TID 0000.0001)    50 @  0.000000000000000E+00              /* K =  1: 50 */
(PID.TID 0000.0001)     ;
(PID.TID 0000.0001) PTRACERS_EvPrRn =/* tracer conc. in Evap. & Rain */
(PID.TID 0000.0001)                 1.234567000000000E+05
(PID.TID 0000.0001)     ;
(PID.TID 0000.0001)  -----------------------------------
(PID.TID 0000.0001)  tracer number :    8
(PID.TID 0000.0001) PTRACERS_names = /* Tracer short name */
(PID.TID 0000.0001)               'ZOO1P'
(PID.TID 0000.0001)     ;
(PID.TID 0000.0001) PTRACERS_long_names = /* Tracer long name */
(PID.TID 0000.0001)               ''
(PID.TID 0000.0001)     ;
(PID.TID 0000.0001) PTRACERS_ioLabel = /* tracer IO Label */
(PID.TID 0000.0001)               '08'
(PID.TID 0000.0001)     ;
(PID.TID 0000.0001) PTRACERS_advScheme = /* Advection Scheme */
(PID.TID 0000.0001)                      33
(PID.TID 0000.0001)     ;
(PID.TID 0000.0001) PTRACERS_SOM_Advection = /* tracer uses SOM advection scheme */
(PID.TID 0000.0001)                   F
(PID.TID 0000.0001)     ;
(PID.TID 0000.0001) PTRACERS_ImplVertAdv = /* implicit vert. advection flag */
(PID.TID 0000.0001)                   F
(PID.TID 0000.0001)     ;
(PID.TID 0000.0001) PTRACERS_MultiDimAdv = /* tracer uses Multi-Dim advection */
(PID.TID 0000.0001)                   T
(PID.TID 0000.0001)     ;
(PID.TID 0000.0001) PTRACERS_AdamsBashGtr = /* apply AB on tracer tendency */
(PID.TID 0000.0001)                   F
(PID.TID 0000.0001)     ;
(PID.TID 0000.0001) PTRACERS_AdamsBash_Tr = /* apply AB on passive tracer */
(PID.TID 0000.0001)                   F
(PID.TID 0000.0001)     ;
(PID.TID 0000.0001) PTRACERS_diffKh = /* Laplacian Diffusivity */
(PID.TID 0000.0001)                 0.000000000000000E+00
(PID.TID 0000.0001)     ;
(PID.TID 0000.0001) PTRACERS_diffK4 = /* Biharmonic Diffusivity */
(PID.TID 0000.0001)                 0.000000000000000E+00
(PID.TID 0000.0001)     ;
(PID.TID 0000.0001) PTRACERS_diffKrNr = /* Vertical Diffusivity */
(PID.TID 0000.0001)    50 @  1.000000000000000E-05              /* K =  1: 50 */
(PID.TID 0000.0001)     ;
(PID.TID 0000.0001) PTRACERS_useGMRedi = /* apply GM-Redi */
(PID.TID 0000.0001)                   T
(PID.TID 0000.0001)     ;
(PID.TID 0000.0001) PTRACERS_useDWNSLP = /* apply DOWN-SLOPE Flow */
(PID.TID 0000.0001)                   F
(PID.TID 0000.0001)     ;
(PID.TID 0000.0001) PTRACERS_useKPP = /* apply KPP scheme */
(PID.TID 0000.0001)                   F
(PID.TID 0000.0001)     ;
(PID.TID 0000.0001) PTRACERS_ref = /* Reference vertical profile */
(PID.TID 0000.0001)    50 @  0.000000000000000E+00              /* K =  1: 50 */
(PID.TID 0000.0001)     ;
(PID.TID 0000.0001) PTRACERS_EvPrRn =/* tracer conc. in Evap. & Rain */
(PID.TID 0000.0001)                 1.234567000000000E+05
(PID.TID 0000.0001)     ;
(PID.TID 0000.0001)  -----------------------------------
(PID.TID 0000.0001)  tracer number :    9
(PID.TID 0000.0001) PTRACERS_names = /* Tracer short name */
(PID.TID 0000.0001)               'ZOO1N'
(PID.TID 0000.0001)     ;
(PID.TID 0000.0001) PTRACERS_long_names = /* Tracer long name */
(PID.TID 0000.0001)               ''
(PID.TID 0000.0001)     ;
(PID.TID 0000.0001) PTRACERS_ioLabel = /* tracer IO Label */
(PID.TID 0000.0001)               '09'
(PID.TID 0000.0001)     ;
(PID.TID 0000.0001) PTRACERS_advScheme = /* Advection Scheme */
(PID.TID 0000.0001)                      33
(PID.TID 0000.0001)     ;
(PID.TID 0000.0001) PTRACERS_SOM_Advection = /* tracer uses SOM advection scheme */
(PID.TID 0000.0001)                   F
(PID.TID 0000.0001)     ;
(PID.TID 0000.0001) PTRACERS_ImplVertAdv = /* implicit vert. advection flag */
(PID.TID 0000.0001)                   F
(PID.TID 0000.0001)     ;
(PID.TID 0000.0001) PTRACERS_MultiDimAdv = /* tracer uses Multi-Dim advection */
(PID.TID 0000.0001)                   T
(PID.TID 0000.0001)     ;
(PID.TID 0000.0001) PTRACERS_AdamsBashGtr = /* apply AB on tracer tendency */
(PID.TID 0000.0001)                   F
(PID.TID 0000.0001)     ;
(PID.TID 0000.0001) PTRACERS_AdamsBash_Tr = /* apply AB on passive tracer */
(PID.TID 0000.0001)                   F
(PID.TID 0000.0001)     ;
(PID.TID 0000.0001) PTRACERS_diffKh = /* Laplacian Diffusivity */
(PID.TID 0000.0001)                 0.000000000000000E+00
(PID.TID 0000.0001)     ;
(PID.TID 0000.0001) PTRACERS_diffK4 = /* Biharmonic Diffusivity */
(PID.TID 0000.0001)                 0.000000000000000E+00
(PID.TID 0000.0001)     ;
(PID.TID 0000.0001) PTRACERS_diffKrNr = /* Vertical Diffusivity */
(PID.TID 0000.0001)    50 @  1.000000000000000E-05              /* K =  1: 50 */
(PID.TID 0000.0001)     ;
(PID.TID 0000.0001) PTRACERS_useGMRedi = /* apply GM-Redi */
(PID.TID 0000.0001)                   T
(PID.TID 0000.0001)     ;
(PID.TID 0000.0001) PTRACERS_useDWNSLP = /* apply DOWN-SLOPE Flow */
(PID.TID 0000.0001)                   F
(PID.TID 0000.0001)     ;
(PID.TID 0000.0001) PTRACERS_useKPP = /* apply KPP scheme */
(PID.TID 0000.0001)                   F
(PID.TID 0000.0001)     ;
(PID.TID 0000.0001) PTRACERS_ref = /* Reference vertical profile */
(PID.TID 0000.0001)    50 @  0.000000000000000E+00              /* K =  1: 50 */
(PID.TID 0000.0001)     ;
(PID.TID 0000.0001) PTRACERS_EvPrRn =/* tracer conc. in Evap. & Rain */
(PID.TID 0000.0001)                 1.234567000000000E+05
(PID.TID 0000.0001)     ;
(PID.TID 0000.0001)  -----------------------------------
(PID.TID 0000.0001)  tracer number :   10
(PID.TID 0000.0001) PTRACERS_names = /* Tracer short name */
(PID.TID 0000.0001)               'ZOO1Fe'
(PID.TID 0000.0001)     ;
(PID.TID 0000.0001) PTRACERS_long_names = /* Tracer long name */
(PID.TID 0000.0001)               ''
(PID.TID 0000.0001)     ;
(PID.TID 0000.0001) PTRACERS_ioLabel = /* tracer IO Label */
(PID.TID 0000.0001)               '10'
(PID.TID 0000.0001)     ;
(PID.TID 0000.0001) PTRACERS_advScheme = /* Advection Scheme */
(PID.TID 0000.0001)                      33
(PID.TID 0000.0001)     ;
(PID.TID 0000.0001) PTRACERS_SOM_Advection = /* tracer uses SOM advection scheme */
(PID.TID 0000.0001)                   F
(PID.TID 0000.0001)     ;
(PID.TID 0000.0001) PTRACERS_ImplVertAdv = /* implicit vert. advection flag */
(PID.TID 0000.0001)                   F
(PID.TID 0000.0001)     ;
(PID.TID 0000.0001) PTRACERS_MultiDimAdv = /* tracer uses Multi-Dim advection */
(PID.TID 0000.0001)                   T
(PID.TID 0000.0001)     ;
(PID.TID 0000.0001) PTRACERS_AdamsBashGtr = /* apply AB on tracer tendency */
(PID.TID 0000.0001)                   F
(PID.TID 0000.0001)     ;
(PID.TID 0000.0001) PTRACERS_AdamsBash_Tr = /* apply AB on passive tracer */
(PID.TID 0000.0001)                   F
(PID.TID 0000.0001)     ;
(PID.TID 0000.0001) PTRACERS_diffKh = /* Laplacian Diffusivity */
(PID.TID 0000.0001)                 0.000000000000000E+00
(PID.TID 0000.0001)     ;
(PID.TID 0000.0001) PTRACERS_diffK4 = /* Biharmonic Diffusivity */
(PID.TID 0000.0001)                 0.000000000000000E+00
(PID.TID 0000.0001)     ;
(PID.TID 0000.0001) PTRACERS_diffKrNr = /* Vertical Diffusivity */
(PID.TID 0000.0001)    50 @  1.000000000000000E-05              /* K =  1: 50 */
(PID.TID 0000.0001)     ;
(PID.TID 0000.0001) PTRACERS_useGMRedi = /* apply GM-Redi */
(PID.TID 0000.0001)                   T
(PID.TID 0000.0001)     ;
(PID.TID 0000.0001) PTRACERS_useDWNSLP = /* apply DOWN-SLOPE Flow */
(PID.TID 0000.0001)                   F
(PID.TID 0000.0001)     ;
(PID.TID 0000.0001) PTRACERS_useKPP = /* apply KPP scheme */
(PID.TID 0000.0001)                   F
(PID.TID 0000.0001)     ;
(PID.TID 0000.0001) PTRACERS_ref = /* Reference vertical profile */
(PID.TID 0000.0001)    50 @  0.000000000000000E+00              /* K =  1: 50 */
(PID.TID 0000.0001)     ;
(PID.TID 0000.0001) PTRACERS_EvPrRn =/* tracer conc. in Evap. & Rain */
(PID.TID 0000.0001)                 1.234567000000000E+05
(PID.TID 0000.0001)     ;
(PID.TID 0000.0001)  -----------------------------------
(PID.TID 0000.0001)  tracer number :   11
(PID.TID 0000.0001) PTRACERS_names = /* Tracer short name */
(PID.TID 0000.0001)               'ZOO1Si'
(PID.TID 0000.0001)     ;
(PID.TID 0000.0001) PTRACERS_long_names = /* Tracer long name */
(PID.TID 0000.0001)               ''
(PID.TID 0000.0001)     ;
(PID.TID 0000.0001) PTRACERS_ioLabel = /* tracer IO Label */
(PID.TID 0000.0001)               '11'
(PID.TID 0000.0001)     ;
(PID.TID 0000.0001) PTRACERS_advScheme = /* Advection Scheme */
(PID.TID 0000.0001)                      33
(PID.TID 0000.0001)     ;
(PID.TID 0000.0001) PTRACERS_SOM_Advection = /* tracer uses SOM advection scheme */
(PID.TID 0000.0001)                   F
(PID.TID 0000.0001)     ;
(PID.TID 0000.0001) PTRACERS_ImplVertAdv = /* implicit vert. advection flag */
(PID.TID 0000.0001)                   F
(PID.TID 0000.0001)     ;
(PID.TID 0000.0001) PTRACERS_MultiDimAdv = /* tracer uses Multi-Dim advection */
(PID.TID 0000.0001)                   T
(PID.TID 0000.0001)     ;
(PID.TID 0000.0001) PTRACERS_AdamsBashGtr = /* apply AB on tracer tendency */
(PID.TID 0000.0001)                   F
(PID.TID 0000.0001)     ;
(PID.TID 0000.0001) PTRACERS_AdamsBash_Tr = /* apply AB on passive tracer */
(PID.TID 0000.0001)                   F
(PID.TID 0000.0001)     ;
(PID.TID 0000.0001) PTRACERS_diffKh = /* Laplacian Diffusivity */
(PID.TID 0000.0001)                 0.000000000000000E+00
(PID.TID 0000.0001)     ;
(PID.TID 0000.0001) PTRACERS_diffK4 = /* Biharmonic Diffusivity */
(PID.TID 0000.0001)                 0.000000000000000E+00
(PID.TID 0000.0001)     ;
(PID.TID 0000.0001) PTRACERS_diffKrNr = /* Vertical Diffusivity */
(PID.TID 0000.0001)    50 @  1.000000000000000E-05              /* K =  1: 50 */
(PID.TID 0000.0001)     ;
(PID.TID 0000.0001) PTRACERS_useGMRedi = /* apply GM-Redi */
(PID.TID 0000.0001)                   T
(PID.TID 0000.0001)     ;
(PID.TID 0000.0001) PTRACERS_useDWNSLP = /* apply DOWN-SLOPE Flow */
(PID.TID 0000.0001)                   F
(PID.TID 0000.0001)     ;
(PID.TID 0000.0001) PTRACERS_useKPP = /* apply KPP scheme */
(PID.TID 0000.0001)                   F
(PID.TID 0000.0001)     ;
(PID.TID 0000.0001) PTRACERS_ref = /* Reference vertical profile */
(PID.TID 0000.0001)    50 @  0.000000000000000E+00              /* K =  1: 50 */
(PID.TID 0000.0001)     ;
(PID.TID 0000.0001) PTRACERS_EvPrRn =/* tracer conc. in Evap. & Rain */
(PID.TID 0000.0001)                 1.234567000000000E+05
(PID.TID 0000.0001)     ;
(PID.TID 0000.0001)  -----------------------------------
(PID.TID 0000.0001)  tracer number :   12
(PID.TID 0000.0001) PTRACERS_names = /* Tracer short name */
(PID.TID 0000.0001)               'ZOO2P'
(PID.TID 0000.0001)     ;
(PID.TID 0000.0001) PTRACERS_long_names = /* Tracer long name */
(PID.TID 0000.0001)               ''
(PID.TID 0000.0001)     ;
(PID.TID 0000.0001) PTRACERS_ioLabel = /* tracer IO Label */
(PID.TID 0000.0001)               '12'
(PID.TID 0000.0001)     ;
(PID.TID 0000.0001) PTRACERS_advScheme = /* Advection Scheme */
(PID.TID 0000.0001)                      33
(PID.TID 0000.0001)     ;
(PID.TID 0000.0001) PTRACERS_SOM_Advection = /* tracer uses SOM advection scheme */
(PID.TID 0000.0001)                   F
(PID.TID 0000.0001)     ;
(PID.TID 0000.0001) PTRACERS_ImplVertAdv = /* implicit vert. advection flag */
(PID.TID 0000.0001)                   F
(PID.TID 0000.0001)     ;
(PID.TID 0000.0001) PTRACERS_MultiDimAdv = /* tracer uses Multi-Dim advection */
(PID.TID 0000.0001)                   T
(PID.TID 0000.0001)     ;
(PID.TID 0000.0001) PTRACERS_AdamsBashGtr = /* apply AB on tracer tendency */
(PID.TID 0000.0001)                   F
(PID.TID 0000.0001)     ;
(PID.TID 0000.0001) PTRACERS_AdamsBash_Tr = /* apply AB on passive tracer */
(PID.TID 0000.0001)                   F
(PID.TID 0000.0001)     ;
(PID.TID 0000.0001) PTRACERS_diffKh = /* Laplacian Diffusivity */
(PID.TID 0000.0001)                 0.000000000000000E+00
(PID.TID 0000.0001)     ;
(PID.TID 0000.0001) PTRACERS_diffK4 = /* Biharmonic Diffusivity */
(PID.TID 0000.0001)                 0.000000000000000E+00
(PID.TID 0000.0001)     ;
(PID.TID 0000.0001) PTRACERS_diffKrNr = /* Vertical Diffusivity */
(PID.TID 0000.0001)    50 @  1.000000000000000E-05              /* K =  1: 50 */
(PID.TID 0000.0001)     ;
(PID.TID 0000.0001) PTRACERS_useGMRedi = /* apply GM-Redi */
(PID.TID 0000.0001)                   T
(PID.TID 0000.0001)     ;
(PID.TID 0000.0001) PTRACERS_useDWNSLP = /* apply DOWN-SLOPE Flow */
(PID.TID 0000.0001)                   F
(PID.TID 0000.0001)     ;
(PID.TID 0000.0001) PTRACERS_useKPP = /* apply KPP scheme */
(PID.TID 0000.0001)                   F
(PID.TID 0000.0001)     ;
(PID.TID 0000.0001) PTRACERS_ref = /* Reference vertical profile */
(PID.TID 0000.0001)    50 @  0.000000000000000E+00              /* K =  1: 50 */
(PID.TID 0000.0001)     ;
(PID.TID 0000.0001) PTRACERS_EvPrRn =/* tracer conc. in Evap. & Rain */
(PID.TID 0000.0001)                 1.234567000000000E+05
(PID.TID 0000.0001)     ;
(PID.TID 0000.0001)  -----------------------------------
(PID.TID 0000.0001)  tracer number :   13
(PID.TID 0000.0001) PTRACERS_names = /* Tracer short name */
(PID.TID 0000.0001)               'ZOO2N'
(PID.TID 0000.0001)     ;
(PID.TID 0000.0001) PTRACERS_long_names = /* Tracer long name */
(PID.TID 0000.0001)               ''
(PID.TID 0000.0001)     ;
(PID.TID 0000.0001) PTRACERS_ioLabel = /* tracer IO Label */
(PID.TID 0000.0001)               '13'
(PID.TID 0000.0001)     ;
(PID.TID 0000.0001) PTRACERS_advScheme = /* Advection Scheme */
(PID.TID 0000.0001)                      33
(PID.TID 0000.0001)     ;
(PID.TID 0000.0001) PTRACERS_SOM_Advection = /* tracer uses SOM advection scheme */
(PID.TID 0000.0001)                   F
(PID.TID 0000.0001)     ;
(PID.TID 0000.0001) PTRACERS_ImplVertAdv = /* implicit vert. advection flag */
(PID.TID 0000.0001)                   F
(PID.TID 0000.0001)     ;
(PID.TID 0000.0001) PTRACERS_MultiDimAdv = /* tracer uses Multi-Dim advection */
(PID.TID 0000.0001)                   T
(PID.TID 0000.0001)     ;
(PID.TID 0000.0001) PTRACERS_AdamsBashGtr = /* apply AB on tracer tendency */
(PID.TID 0000.0001)                   F
(PID.TID 0000.0001)     ;
(PID.TID 0000.0001) PTRACERS_AdamsBash_Tr = /* apply AB on passive tracer */
(PID.TID 0000.0001)                   F
(PID.TID 0000.0001)     ;
(PID.TID 0000.0001) PTRACERS_diffKh = /* Laplacian Diffusivity */
(PID.TID 0000.0001)                 0.000000000000000E+00
(PID.TID 0000.0001)     ;
(PID.TID 0000.0001) PTRACERS_diffK4 = /* Biharmonic Diffusivity */
(PID.TID 0000.0001)                 0.000000000000000E+00
(PID.TID 0000.0001)     ;
(PID.TID 0000.0001) PTRACERS_diffKrNr = /* Vertical Diffusivity */
(PID.TID 0000.0001)    50 @  1.000000000000000E-05              /* K =  1: 50 */
(PID.TID 0000.0001)     ;
(PID.TID 0000.0001) PTRACERS_useGMRedi = /* apply GM-Redi */
(PID.TID 0000.0001)                   T
(PID.TID 0000.0001)     ;
(PID.TID 0000.0001) PTRACERS_useDWNSLP = /* apply DOWN-SLOPE Flow */
(PID.TID 0000.0001)                   F
(PID.TID 0000.0001)     ;
(PID.TID 0000.0001) PTRACERS_useKPP = /* apply KPP scheme */
(PID.TID 0000.0001)                   F
(PID.TID 0000.0001)     ;
(PID.TID 0000.0001) PTRACERS_ref = /* Reference vertical profile */
(PID.TID 0000.0001)    50 @  0.000000000000000E+00              /* K =  1: 50 */
(PID.TID 0000.0001)     ;
(PID.TID 0000.0001) PTRACERS_EvPrRn =/* tracer conc. in Evap. & Rain */
(PID.TID 0000.0001)                 1.234567000000000E+05
(PID.TID 0000.0001)     ;
(PID.TID 0000.0001)  -----------------------------------
(PID.TID 0000.0001)  tracer number :   14
(PID.TID 0000.0001) PTRACERS_names = /* Tracer short name */
(PID.TID 0000.0001)               'ZOO2Fe'
(PID.TID 0000.0001)     ;
(PID.TID 0000.0001) PTRACERS_long_names = /* Tracer long name */
(PID.TID 0000.0001)               ''
(PID.TID 0000.0001)     ;
(PID.TID 0000.0001) PTRACERS_ioLabel = /* tracer IO Label */
(PID.TID 0000.0001)               '14'
(PID.TID 0000.0001)     ;
(PID.TID 0000.0001) PTRACERS_advScheme = /* Advection Scheme */
(PID.TID 0000.0001)                      33
(PID.TID 0000.0001)     ;
(PID.TID 0000.0001) PTRACERS_SOM_Advection = /* tracer uses SOM advection scheme */
(PID.TID 0000.0001)                   F
(PID.TID 0000.0001)     ;
(PID.TID 0000.0001) PTRACERS_ImplVertAdv = /* implicit vert. advection flag */
(PID.TID 0000.0001)                   F
(PID.TID 0000.0001)     ;
(PID.TID 0000.0001) PTRACERS_MultiDimAdv = /* tracer uses Multi-Dim advection */
(PID.TID 0000.0001)                   T
(PID.TID 0000.0001)     ;
(PID.TID 0000.0001) PTRACERS_AdamsBashGtr = /* apply AB on tracer tendency */
(PID.TID 0000.0001)                   F
(PID.TID 0000.0001)     ;
(PID.TID 0000.0001) PTRACERS_AdamsBash_Tr = /* apply AB on passive tracer */
(PID.TID 0000.0001)                   F
(PID.TID 0000.0001)     ;
(PID.TID 0000.0001) PTRACERS_diffKh = /* Laplacian Diffusivity */
(PID.TID 0000.0001)                 0.000000000000000E+00
(PID.TID 0000.0001)     ;
(PID.TID 0000.0001) PTRACERS_diffK4 = /* Biharmonic Diffusivity */
(PID.TID 0000.0001)                 0.000000000000000E+00
(PID.TID 0000.0001)     ;
(PID.TID 0000.0001) PTRACERS_diffKrNr = /* Vertical Diffusivity */
(PID.TID 0000.0001)    50 @  1.000000000000000E-05              /* K =  1: 50 */
(PID.TID 0000.0001)     ;
(PID.TID 0000.0001) PTRACERS_useGMRedi = /* apply GM-Redi */
(PID.TID 0000.0001)                   T
(PID.TID 0000.0001)     ;
(PID.TID 0000.0001) PTRACERS_useDWNSLP = /* apply DOWN-SLOPE Flow */
(PID.TID 0000.0001)                   F
(PID.TID 0000.0001)     ;
(PID.TID 0000.0001) PTRACERS_useKPP = /* apply KPP scheme */
(PID.TID 0000.0001)                   F
(PID.TID 0000.0001)     ;
(PID.TID 0000.0001) PTRACERS_ref = /* Reference vertical profile */
(PID.TID 0000.0001)    50 @  0.000000000000000E+00              /* K =  1: 50 */
(PID.TID 0000.0001)     ;
(PID.TID 0000.0001) PTRACERS_EvPrRn =/* tracer conc. in Evap. & Rain */
(PID.TID 0000.0001)                 1.234567000000000E+05
(PID.TID 0000.0001)     ;
(PID.TID 0000.0001)  -----------------------------------
(PID.TID 0000.0001)  tracer number :   15
(PID.TID 0000.0001) PTRACERS_names = /* Tracer short name */
(PID.TID 0000.0001)               'ZOO2Si'
(PID.TID 0000.0001)     ;
(PID.TID 0000.0001) PTRACERS_long_names = /* Tracer long name */
(PID.TID 0000.0001)               ''
(PID.TID 0000.0001)     ;
(PID.TID 0000.0001) PTRACERS_ioLabel = /* tracer IO Label */
(PID.TID 0000.0001)               '15'
(PID.TID 0000.0001)     ;
(PID.TID 0000.0001) PTRACERS_advScheme = /* Advection Scheme */
(PID.TID 0000.0001)                      33
(PID.TID 0000.0001)     ;
(PID.TID 0000.0001) PTRACERS_SOM_Advection = /* tracer uses SOM advection scheme */
(PID.TID 0000.0001)                   F
(PID.TID 0000.0001)     ;
(PID.TID 0000.0001) PTRACERS_ImplVertAdv = /* implicit vert. advection flag */
(PID.TID 0000.0001)                   F
(PID.TID 0000.0001)     ;
(PID.TID 0000.0001) PTRACERS_MultiDimAdv = /* tracer uses Multi-Dim advection */
(PID.TID 0000.0001)                   T
(PID.TID 0000.0001)     ;
(PID.TID 0000.0001) PTRACERS_AdamsBashGtr = /* apply AB on tracer tendency */
(PID.TID 0000.0001)                   F
(PID.TID 0000.0001)     ;
(PID.TID 0000.0001) PTRACERS_AdamsBash_Tr = /* apply AB on passive tracer */
(PID.TID 0000.0001)                   F
(PID.TID 0000.0001)     ;
(PID.TID 0000.0001) PTRACERS_diffKh = /* Laplacian Diffusivity */
(PID.TID 0000.0001)                 0.000000000000000E+00
(PID.TID 0000.0001)     ;
(PID.TID 0000.0001) PTRACERS_diffK4 = /* Biharmonic Diffusivity */
(PID.TID 0000.0001)                 0.000000000000000E+00
(PID.TID 0000.0001)     ;
(PID.TID 0000.0001) PTRACERS_diffKrNr = /* Vertical Diffusivity */
(PID.TID 0000.0001)    50 @  1.000000000000000E-05              /* K =  1: 50 */
(PID.TID 0000.0001)     ;
(PID.TID 0000.0001) PTRACERS_useGMRedi = /* apply GM-Redi */
(PID.TID 0000.0001)                   T
(PID.TID 0000.0001)     ;
(PID.TID 0000.0001) PTRACERS_useDWNSLP = /* apply DOWN-SLOPE Flow */
(PID.TID 0000.0001)                   F
(PID.TID 0000.0001)     ;
(PID.TID 0000.0001) PTRACERS_useKPP = /* apply KPP scheme */
(PID.TID 0000.0001)                   F
(PID.TID 0000.0001)     ;
(PID.TID 0000.0001) PTRACERS_ref = /* Reference vertical profile */
(PID.TID 0000.0001)    50 @  0.000000000000000E+00              /* K =  1: 50 */
(PID.TID 0000.0001)     ;
(PID.TID 0000.0001) PTRACERS_EvPrRn =/* tracer conc. in Evap. & Rain */
(PID.TID 0000.0001)                 1.234567000000000E+05
(PID.TID 0000.0001)     ;
(PID.TID 0000.0001)  -----------------------------------
(PID.TID 0000.0001)  tracer number :   16
(PID.TID 0000.0001) PTRACERS_names = /* Tracer short name */
(PID.TID 0000.0001)               'POP'
(PID.TID 0000.0001)     ;
(PID.TID 0000.0001) PTRACERS_long_names = /* Tracer long name */
(PID.TID 0000.0001)               ''
(PID.TID 0000.0001)     ;
(PID.TID 0000.0001) PTRACERS_ioLabel = /* tracer IO Label */
(PID.TID 0000.0001)               '16'
(PID.TID 0000.0001)     ;
(PID.TID 0000.0001) PTRACERS_advScheme = /* Advection Scheme */
(PID.TID 0000.0001)                      33
(PID.TID 0000.0001)     ;
(PID.TID 0000.0001) PTRACERS_SOM_Advection = /* tracer uses SOM advection scheme */
(PID.TID 0000.0001)                   F
(PID.TID 0000.0001)     ;
(PID.TID 0000.0001) PTRACERS_ImplVertAdv = /* implicit vert. advection flag */
(PID.TID 0000.0001)                   F
(PID.TID 0000.0001)     ;
(PID.TID 0000.0001) PTRACERS_MultiDimAdv = /* tracer uses Multi-Dim advection */
(PID.TID 0000.0001)                   T
(PID.TID 0000.0001)     ;
(PID.TID 0000.0001) PTRACERS_AdamsBashGtr = /* apply AB on tracer tendency */
(PID.TID 0000.0001)                   F
(PID.TID 0000.0001)     ;
(PID.TID 0000.0001) PTRACERS_AdamsBash_Tr = /* apply AB on passive tracer */
(PID.TID 0000.0001)                   F
(PID.TID 0000.0001)     ;
(PID.TID 0000.0001) PTRACERS_diffKh = /* Laplacian Diffusivity */
(PID.TID 0000.0001)                 0.000000000000000E+00
(PID.TID 0000.0001)     ;
(PID.TID 0000.0001) PTRACERS_diffK4 = /* Biharmonic Diffusivity */
(PID.TID 0000.0001)                 0.000000000000000E+00
(PID.TID 0000.0001)     ;
(PID.TID 0000.0001) PTRACERS_diffKrNr = /* Vertical Diffusivity */
(PID.TID 0000.0001)    50 @  1.000000000000000E-05              /* K =  1: 50 */
(PID.TID 0000.0001)     ;
(PID.TID 0000.0001) PTRACERS_useGMRedi = /* apply GM-Redi */
(PID.TID 0000.0001)                   T
(PID.TID 0000.0001)     ;
(PID.TID 0000.0001) PTRACERS_useDWNSLP = /* apply DOWN-SLOPE Flow */
(PID.TID 0000.0001)                   F
(PID.TID 0000.0001)     ;
(PID.TID 0000.0001) PTRACERS_useKPP = /* apply KPP scheme */
(PID.TID 0000.0001)                   F
(PID.TID 0000.0001)     ;
(PID.TID 0000.0001) PTRACERS_ref = /* Reference vertical profile */
(PID.TID 0000.0001)    50 @  0.000000000000000E+00              /* K =  1: 50 */
(PID.TID 0000.0001)     ;
(PID.TID 0000.0001) PTRACERS_EvPrRn =/* tracer conc. in Evap. & Rain */
(PID.TID 0000.0001)                 1.234567000000000E+05
(PID.TID 0000.0001)     ;
(PID.TID 0000.0001)  -----------------------------------
(PID.TID 0000.0001)  tracer number :   17
(PID.TID 0000.0001) PTRACERS_names = /* Tracer short name */
(PID.TID 0000.0001)               'PON'
(PID.TID 0000.0001)     ;
(PID.TID 0000.0001) PTRACERS_long_names = /* Tracer long name */
(PID.TID 0000.0001)               ''
(PID.TID 0000.0001)     ;
(PID.TID 0000.0001) PTRACERS_ioLabel = /* tracer IO Label */
(PID.TID 0000.0001)               '17'
(PID.TID 0000.0001)     ;
(PID.TID 0000.0001) PTRACERS_advScheme = /* Advection Scheme */
(PID.TID 0000.0001)                      33
(PID.TID 0000.0001)     ;
(PID.TID 0000.0001) PTRACERS_SOM_Advection = /* tracer uses SOM advection scheme */
(PID.TID 0000.0001)                   F
(PID.TID 0000.0001)     ;
(PID.TID 0000.0001) PTRACERS_ImplVertAdv = /* implicit vert. advection flag */
(PID.TID 0000.0001)                   F
(PID.TID 0000.0001)     ;
(PID.TID 0000.0001) PTRACERS_MultiDimAdv = /* tracer uses Multi-Dim advection */
(PID.TID 0000.0001)                   T
(PID.TID 0000.0001)     ;
(PID.TID 0000.0001) PTRACERS_AdamsBashGtr = /* apply AB on tracer tendency */
(PID.TID 0000.0001)                   F
(PID.TID 0000.0001)     ;
(PID.TID 0000.0001) PTRACERS_AdamsBash_Tr = /* apply AB on passive tracer */
(PID.TID 0000.0001)                   F
(PID.TID 0000.0001)     ;
(PID.TID 0000.0001) PTRACERS_diffKh = /* Laplacian Diffusivity */
(PID.TID 0000.0001)                 0.000000000000000E+00
(PID.TID 0000.0001)     ;
(PID.TID 0000.0001) PTRACERS_diffK4 = /* Biharmonic Diffusivity */
(PID.TID 0000.0001)                 0.000000000000000E+00
(PID.TID 0000.0001)     ;
(PID.TID 0000.0001) PTRACERS_diffKrNr = /* Vertical Diffusivity */
(PID.TID 0000.0001)    50 @  1.000000000000000E-05              /* K =  1: 50 */
(PID.TID 0000.0001)     ;
(PID.TID 0000.0001) PTRACERS_useGMRedi = /* apply GM-Redi */
(PID.TID 0000.0001)                   T
(PID.TID 0000.0001)     ;
(PID.TID 0000.0001) PTRACERS_useDWNSLP = /* apply DOWN-SLOPE Flow */
(PID.TID 0000.0001)                   F
(PID.TID 0000.0001)     ;
(PID.TID 0000.0001) PTRACERS_useKPP = /* apply KPP scheme */
(PID.TID 0000.0001)                   F
(PID.TID 0000.0001)     ;
(PID.TID 0000.0001) PTRACERS_ref = /* Reference vertical profile */
(PID.TID 0000.0001)    50 @  0.000000000000000E+00              /* K =  1: 50 */
(PID.TID 0000.0001)     ;
(PID.TID 0000.0001) PTRACERS_EvPrRn =/* tracer conc. in Evap. & Rain */
(PID.TID 0000.0001)                 1.234567000000000E+05
(PID.TID 0000.0001)     ;
(PID.TID 0000.0001)  -----------------------------------
(PID.TID 0000.0001)  tracer number :   18
(PID.TID 0000.0001) PTRACERS_names = /* Tracer short name */
(PID.TID 0000.0001)               'POFe'
(PID.TID 0000.0001)     ;
(PID.TID 0000.0001) PTRACERS_long_names = /* Tracer long name */
(PID.TID 0000.0001)               ''
(PID.TID 0000.0001)     ;
(PID.TID 0000.0001) PTRACERS_ioLabel = /* tracer IO Label */
(PID.TID 0000.0001)               '18'
(PID.TID 0000.0001)     ;
(PID.TID 0000.0001) PTRACERS_advScheme = /* Advection Scheme */
(PID.TID 0000.0001)                      33
(PID.TID 0000.0001)     ;
(PID.TID 0000.0001) PTRACERS_SOM_Advection = /* tracer uses SOM advection scheme */
(PID.TID 0000.0001)                   F
(PID.TID 0000.0001)     ;
(PID.TID 0000.0001) PTRACERS_ImplVertAdv = /* implicit vert. advection flag */
(PID.TID 0000.0001)                   F
(PID.TID 0000.0001)     ;
(PID.TID 0000.0001) PTRACERS_MultiDimAdv = /* tracer uses Multi-Dim advection */
(PID.TID 0000.0001)                   T
(PID.TID 0000.0001)     ;
(PID.TID 0000.0001) PTRACERS_AdamsBashGtr = /* apply AB on tracer tendency */
(PID.TID 0000.0001)                   F
(PID.TID 0000.0001)     ;
(PID.TID 0000.0001) PTRACERS_AdamsBash_Tr = /* apply AB on passive tracer */
(PID.TID 0000.0001)                   F
(PID.TID 0000.0001)     ;
(PID.TID 0000.0001) PTRACERS_diffKh = /* Laplacian Diffusivity */
(PID.TID 0000.0001)                 0.000000000000000E+00
(PID.TID 0000.0001)     ;
(PID.TID 0000.0001) PTRACERS_diffK4 = /* Biharmonic Diffusivity */
(PID.TID 0000.0001)                 0.000000000000000E+00
(PID.TID 0000.0001)     ;
(PID.TID 0000.0001) PTRACERS_diffKrNr = /* Vertical Diffusivity */
(PID.TID 0000.0001)    50 @  1.000000000000000E-05              /* K =  1: 50 */
(PID.TID 0000.0001)     ;
(PID.TID 0000.0001) PTRACERS_useGMRedi = /* apply GM-Redi */
(PID.TID 0000.0001)                   T
(PID.TID 0000.0001)     ;
(PID.TID 0000.0001) PTRACERS_useDWNSLP = /* apply DOWN-SLOPE Flow */
(PID.TID 0000.0001)                   F
(PID.TID 0000.0001)     ;
(PID.TID 0000.0001) PTRACERS_useKPP = /* apply KPP scheme */
(PID.TID 0000.0001)                   F
(PID.TID 0000.0001)     ;
(PID.TID 0000.0001) PTRACERS_ref = /* Reference vertical profile */
(PID.TID 0000.0001)    50 @  0.000000000000000E+00              /* K =  1: 50 */
(PID.TID 0000.0001)     ;
(PID.TID 0000.0001) PTRACERS_EvPrRn =/* tracer conc. in Evap. & Rain */
(PID.TID 0000.0001)                 1.234567000000000E+05
(PID.TID 0000.0001)     ;
(PID.TID 0000.0001)  -----------------------------------
(PID.TID 0000.0001)  tracer number :   19
(PID.TID 0000.0001) PTRACERS_names = /* Tracer short name */
(PID.TID 0000.0001)               'POSi'
(PID.TID 0000.0001)     ;
(PID.TID 0000.0001) PTRACERS_long_names = /* Tracer long name */
(PID.TID 0000.0001)               ''
(PID.TID 0000.0001)     ;
(PID.TID 0000.0001) PTRACERS_ioLabel = /* tracer IO Label */
(PID.TID 0000.0001)               '19'
(PID.TID 0000.0001)     ;
(PID.TID 0000.0001) PTRACERS_advScheme = /* Advection Scheme */
(PID.TID 0000.0001)                      33
(PID.TID 0000.0001)     ;
(PID.TID 0000.0001) PTRACERS_SOM_Advection = /* tracer uses SOM advection scheme */
(PID.TID 0000.0001)                   F
(PID.TID 0000.0001)     ;
(PID.TID 0000.0001) PTRACERS_ImplVertAdv = /* implicit vert. advection flag */
(PID.TID 0000.0001)                   F
(PID.TID 0000.0001)     ;
(PID.TID 0000.0001) PTRACERS_MultiDimAdv = /* tracer uses Multi-Dim advection */
(PID.TID 0000.0001)                   T
(PID.TID 0000.0001)     ;
(PID.TID 0000.0001) PTRACERS_AdamsBashGtr = /* apply AB on tracer tendency */
(PID.TID 0000.0001)                   F
(PID.TID 0000.0001)     ;
(PID.TID 0000.0001) PTRACERS_AdamsBash_Tr = /* apply AB on passive tracer */
(PID.TID 0000.0001)                   F
(PID.TID 0000.0001)     ;
(PID.TID 0000.0001) PTRACERS_diffKh = /* Laplacian Diffusivity */
(PID.TID 0000.0001)                 0.000000000000000E+00
(PID.TID 0000.0001)     ;
(PID.TID 0000.0001) PTRACERS_diffK4 = /* Biharmonic Diffusivity */
(PID.TID 0000.0001)                 0.000000000000000E+00
(PID.TID 0000.0001)     ;
(PID.TID 0000.0001) PTRACERS_diffKrNr = /* Vertical Diffusivity */
(PID.TID 0000.0001)    50 @  1.000000000000000E-05              /* K =  1: 50 */
(PID.TID 0000.0001)     ;
(PID.TID 0000.0001) PTRACERS_useGMRedi = /* apply GM-Redi */
(PID.TID 0000.0001)                   T
(PID.TID 0000.0001)     ;
(PID.TID 0000.0001) PTRACERS_useDWNSLP = /* apply DOWN-SLOPE Flow */
(PID.TID 0000.0001)                   F
(PID.TID 0000.0001)     ;
(PID.TID 0000.0001) PTRACERS_useKPP = /* apply KPP scheme */
(PID.TID 0000.0001)                   F
(PID.TID 0000.0001)     ;
(PID.TID 0000.0001) PTRACERS_ref = /* Reference vertical profile */
(PID.TID 0000.0001)    50 @  0.000000000000000E+00              /* K =  1: 50 */
(PID.TID 0000.0001)     ;
(PID.TID 0000.0001) PTRACERS_EvPrRn =/* tracer conc. in Evap. & Rain */
(PID.TID 0000.0001)                 1.234567000000000E+05
(PID.TID 0000.0001)     ;
(PID.TID 0000.0001)  -----------------------------------
(PID.TID 0000.0001)  tracer number :   20
(PID.TID 0000.0001) PTRACERS_names = /* Tracer short name */
(PID.TID 0000.0001)               'NH4'
(PID.TID 0000.0001)     ;
(PID.TID 0000.0001) PTRACERS_long_names = /* Tracer long name */
(PID.TID 0000.0001)               ''
(PID.TID 0000.0001)     ;
(PID.TID 0000.0001) PTRACERS_ioLabel = /* tracer IO Label */
(PID.TID 0000.0001)               '20'
(PID.TID 0000.0001)     ;
(PID.TID 0000.0001) PTRACERS_advScheme = /* Advection Scheme */
(PID.TID 0000.0001)                      33
(PID.TID 0000.0001)     ;
(PID.TID 0000.0001) PTRACERS_SOM_Advection = /* tracer uses SOM advection scheme */
(PID.TID 0000.0001)                   F
(PID.TID 0000.0001)     ;
(PID.TID 0000.0001) PTRACERS_ImplVertAdv = /* implicit vert. advection flag */
(PID.TID 0000.0001)                   F
(PID.TID 0000.0001)     ;
(PID.TID 0000.0001) PTRACERS_MultiDimAdv = /* tracer uses Multi-Dim advection */
(PID.TID 0000.0001)                   T
(PID.TID 0000.0001)     ;
(PID.TID 0000.0001) PTRACERS_AdamsBashGtr = /* apply AB on tracer tendency */
(PID.TID 0000.0001)                   F
(PID.TID 0000.0001)     ;
(PID.TID 0000.0001) PTRACERS_AdamsBash_Tr = /* apply AB on passive tracer */
(PID.TID 0000.0001)                   F
(PID.TID 0000.0001)     ;
(PID.TID 0000.0001) PTRACERS_diffKh = /* Laplacian Diffusivity */
(PID.TID 0000.0001)                 0.000000000000000E+00
(PID.TID 0000.0001)     ;
(PID.TID 0000.0001) PTRACERS_diffK4 = /* Biharmonic Diffusivity */
(PID.TID 0000.0001)                 0.000000000000000E+00
(PID.TID 0000.0001)     ;
(PID.TID 0000.0001) PTRACERS_diffKrNr = /* Vertical Diffusivity */
(PID.TID 0000.0001)    50 @  1.000000000000000E-05              /* K =  1: 50 */
(PID.TID 0000.0001)     ;
(PID.TID 0000.0001) PTRACERS_useGMRedi = /* apply GM-Redi */
(PID.TID 0000.0001)                   T
(PID.TID 0000.0001)     ;
(PID.TID 0000.0001) PTRACERS_useDWNSLP = /* apply DOWN-SLOPE Flow */
(PID.TID 0000.0001)                   F
(PID.TID 0000.0001)     ;
(PID.TID 0000.0001) PTRACERS_useKPP = /* apply KPP scheme */
(PID.TID 0000.0001)                   F
(PID.TID 0000.0001)     ;
(PID.TID 0000.0001) PTRACERS_ref = /* Reference vertical profile */
(PID.TID 0000.0001)    50 @  0.000000000000000E+00              /* K =  1: 50 */
(PID.TID 0000.0001)     ;
(PID.TID 0000.0001) PTRACERS_EvPrRn =/* tracer conc. in Evap. & Rain */
(PID.TID 0000.0001)                 1.234567000000000E+05
(PID.TID 0000.0001)     ;
(PID.TID 0000.0001)  -----------------------------------
(PID.TID 0000.0001)  tracer number :   21
(PID.TID 0000.0001) PTRACERS_names = /* Tracer short name */
(PID.TID 0000.0001)               'NO2'
(PID.TID 0000.0001)     ;
(PID.TID 0000.0001) PTRACERS_long_names = /* Tracer long name */
(PID.TID 0000.0001)               ''
(PID.TID 0000.0001)     ;
(PID.TID 0000.0001) PTRACERS_ioLabel = /* tracer IO Label */
(PID.TID 0000.0001)               '21'
(PID.TID 0000.0001)     ;
(PID.TID 0000.0001) PTRACERS_advScheme = /* Advection Scheme */
(PID.TID 0000.0001)                      33
(PID.TID 0000.0001)     ;
(PID.TID 0000.0001) PTRACERS_SOM_Advection = /* tracer uses SOM advection scheme */
(PID.TID 0000.0001)                   F
(PID.TID 0000.0001)     ;
(PID.TID 0000.0001) PTRACERS_ImplVertAdv = /* implicit vert. advection flag */
(PID.TID 0000.0001)                   F
(PID.TID 0000.0001)     ;
(PID.TID 0000.0001) PTRACERS_MultiDimAdv = /* tracer uses Multi-Dim advection */
(PID.TID 0000.0001)                   T
(PID.TID 0000.0001)     ;
(PID.TID 0000.0001) PTRACERS_AdamsBashGtr = /* apply AB on tracer tendency */
(PID.TID 0000.0001)                   F
(PID.TID 0000.0001)     ;
(PID.TID 0000.0001) PTRACERS_AdamsBash_Tr = /* apply AB on passive tracer */
(PID.TID 0000.0001)                   F
(PID.TID 0000.0001)     ;
(PID.TID 0000.0001) PTRACERS_diffKh = /* Laplacian Diffusivity */
(PID.TID 0000.0001)                 0.000000000000000E+00
(PID.TID 0000.0001)     ;
(PID.TID 0000.0001) PTRACERS_diffK4 = /* Biharmonic Diffusivity */
(PID.TID 0000.0001)                 0.000000000000000E+00
(PID.TID 0000.0001)     ;
(PID.TID 0000.0001) PTRACERS_diffKrNr = /* Vertical Diffusivity */
(PID.TID 0000.0001)    50 @  1.000000000000000E-05              /* K =  1: 50 */
(PID.TID 0000.0001)     ;
(PID.TID 0000.0001) PTRACERS_useGMRedi = /* apply GM-Redi */
(PID.TID 0000.0001)                   T
(PID.TID 0000.0001)     ;
(PID.TID 0000.0001) PTRACERS_useDWNSLP = /* apply DOWN-SLOPE Flow */
(PID.TID 0000.0001)                   F
(PID.TID 0000.0001)     ;
(PID.TID 0000.0001) PTRACERS_useKPP = /* apply KPP scheme */
(PID.TID 0000.0001)                   F
(PID.TID 0000.0001)     ;
(PID.TID 0000.0001) PTRACERS_ref = /* Reference vertical profile */
(PID.TID 0000.0001)    50 @  0.000000000000000E+00              /* K =  1: 50 */
(PID.TID 0000.0001)     ;
(PID.TID 0000.0001) PTRACERS_EvPrRn =/* tracer conc. in Evap. & Rain */
(PID.TID 0000.0001)                 1.234567000000000E+05
(PID.TID 0000.0001)     ;
(PID.TID 0000.0001)  -----------------------------------
(PID.TID 0000.0001)  tracer number :   22
(PID.TID 0000.0001) PTRACERS_names = /* Tracer short name */
(PID.TID 0000.0001)               'Phy01'
(PID.TID 0000.0001)     ;
(PID.TID 0000.0001) PTRACERS_long_names = /* Tracer long name */
(PID.TID 0000.0001)               ''
(PID.TID 0000.0001)     ;
(PID.TID 0000.0001) PTRACERS_ioLabel = /* tracer IO Label */
(PID.TID 0000.0001)               '22'
(PID.TID 0000.0001)     ;
(PID.TID 0000.0001) PTRACERS_advScheme = /* Advection Scheme */
(PID.TID 0000.0001)                      33
(PID.TID 0000.0001)     ;
(PID.TID 0000.0001) PTRACERS_SOM_Advection = /* tracer uses SOM advection scheme */
(PID.TID 0000.0001)                   F
(PID.TID 0000.0001)     ;
(PID.TID 0000.0001) PTRACERS_ImplVertAdv = /* implicit vert. advection flag */
(PID.TID 0000.0001)                   F
(PID.TID 0000.0001)     ;
(PID.TID 0000.0001) PTRACERS_MultiDimAdv = /* tracer uses Multi-Dim advection */
(PID.TID 0000.0001)                   T
(PID.TID 0000.0001)     ;
(PID.TID 0000.0001) PTRACERS_AdamsBashGtr = /* apply AB on tracer tendency */
(PID.TID 0000.0001)                   F
(PID.TID 0000.0001)     ;
(PID.TID 0000.0001) PTRACERS_AdamsBash_Tr = /* apply AB on passive tracer */
(PID.TID 0000.0001)                   F
(PID.TID 0000.0001)     ;
(PID.TID 0000.0001) PTRACERS_diffKh = /* Laplacian Diffusivity */
(PID.TID 0000.0001)                 0.000000000000000E+00
(PID.TID 0000.0001)     ;
(PID.TID 0000.0001) PTRACERS_diffK4 = /* Biharmonic Diffusivity */
(PID.TID 0000.0001)                 0.000000000000000E+00
(PID.TID 0000.0001)     ;
(PID.TID 0000.0001) PTRACERS_diffKrNr = /* Vertical Diffusivity */
(PID.TID 0000.0001)    50 @  1.000000000000000E-05              /* K =  1: 50 */
(PID.TID 0000.0001)     ;
(PID.TID 0000.0001) PTRACERS_useGMRedi = /* apply GM-Redi */
(PID.TID 0000.0001)                   T
(PID.TID 0000.0001)     ;
(PID.TID 0000.0001) PTRACERS_useDWNSLP = /* apply DOWN-SLOPE Flow */
(PID.TID 0000.0001)                   F
(PID.TID 0000.0001)     ;
(PID.TID 0000.0001) PTRACERS_useKPP = /* apply KPP scheme */
(PID.TID 0000.0001)                   F
(PID.TID 0000.0001)     ;
(PID.TID 0000.0001) PTRACERS_ref = /* Reference vertical profile */
(PID.TID 0000.0001)    50 @  0.000000000000000E+00              /* K =  1: 50 */
(PID.TID 0000.0001)     ;
(PID.TID 0000.0001) PTRACERS_EvPrRn =/* tracer conc. in Evap. & Rain */
(PID.TID 0000.0001)                 1.234567000000000E+05
(PID.TID 0000.0001)     ;
(PID.TID 0000.0001)  -----------------------------------
(PID.TID 0000.0001)  tracer number :   23
(PID.TID 0000.0001) PTRACERS_names = /* Tracer short name */
(PID.TID 0000.0001)               'Phy02'
(PID.TID 0000.0001)     ;
(PID.TID 0000.0001) PTRACERS_long_names = /* Tracer long name */
(PID.TID 0000.0001)               ''
(PID.TID 0000.0001)     ;
(PID.TID 0000.0001) PTRACERS_ioLabel = /* tracer IO Label */
(PID.TID 0000.0001)               '23'
(PID.TID 0000.0001)     ;
(PID.TID 0000.0001) PTRACERS_advScheme = /* Advection Scheme */
(PID.TID 0000.0001)                      33
(PID.TID 0000.0001)     ;
(PID.TID 0000.0001) PTRACERS_SOM_Advection = /* tracer uses SOM advection scheme */
(PID.TID 0000.0001)                   F
(PID.TID 0000.0001)     ;
(PID.TID 0000.0001) PTRACERS_ImplVertAdv = /* implicit vert. advection flag */
(PID.TID 0000.0001)                   F
(PID.TID 0000.0001)     ;
(PID.TID 0000.0001) PTRACERS_MultiDimAdv = /* tracer uses Multi-Dim advection */
(PID.TID 0000.0001)                   T
(PID.TID 0000.0001)     ;
(PID.TID 0000.0001) PTRACERS_AdamsBashGtr = /* apply AB on tracer tendency */
(PID.TID 0000.0001)                   F
(PID.TID 0000.0001)     ;
(PID.TID 0000.0001) PTRACERS_AdamsBash_Tr = /* apply AB on passive tracer */
(PID.TID 0000.0001)                   F
(PID.TID 0000.0001)     ;
(PID.TID 0000.0001) PTRACERS_diffKh = /* Laplacian Diffusivity */
(PID.TID 0000.0001)                 0.000000000000000E+00
(PID.TID 0000.0001)     ;
(PID.TID 0000.0001) PTRACERS_diffK4 = /* Biharmonic Diffusivity */
(PID.TID 0000.0001)                 0.000000000000000E+00
(PID.TID 0000.0001)     ;
(PID.TID 0000.0001) PTRACERS_diffKrNr = /* Vertical Diffusivity */
(PID.TID 0000.0001)    50 @  1.000000000000000E-05              /* K =  1: 50 */
(PID.TID 0000.0001)     ;
(PID.TID 0000.0001) PTRACERS_useGMRedi = /* apply GM-Redi */
(PID.TID 0000.0001)                   T
(PID.TID 0000.0001)     ;
(PID.TID 0000.0001) PTRACERS_useDWNSLP = /* apply DOWN-SLOPE Flow */
(PID.TID 0000.0001)                   F
(PID.TID 0000.0001)     ;
(PID.TID 0000.0001) PTRACERS_useKPP = /* apply KPP scheme */
(PID.TID 0000.0001)                   F
(PID.TID 0000.0001)     ;
(PID.TID 0000.0001) PTRACERS_ref = /* Reference vertical profile */
(PID.TID 0000.0001)    50 @  0.000000000000000E+00              /* K =  1: 50 */
(PID.TID 0000.0001)     ;
(PID.TID 0000.0001) PTRACERS_EvPrRn =/* tracer conc. in Evap. & Rain */
(PID.TID 0000.0001)                 1.234567000000000E+05
(PID.TID 0000.0001)     ;
(PID.TID 0000.0001)  -----------------------------------
(PID.TID 0000.0001)  tracer number :   24
(PID.TID 0000.0001) PTRACERS_names = /* Tracer short name */
(PID.TID 0000.0001)               'Phy03'
(PID.TID 0000.0001)     ;
(PID.TID 0000.0001) PTRACERS_long_names = /* Tracer long name */
(PID.TID 0000.0001)               ''
(PID.TID 0000.0001)     ;
(PID.TID 0000.0001) PTRACERS_ioLabel = /* tracer IO Label */
(PID.TID 0000.0001)               '24'
(PID.TID 0000.0001)     ;
(PID.TID 0000.0001) PTRACERS_advScheme = /* Advection Scheme */
(PID.TID 0000.0001)                      33
(PID.TID 0000.0001)     ;
(PID.TID 0000.0001) PTRACERS_SOM_Advection = /* tracer uses SOM advection scheme */
(PID.TID 0000.0001)                   F
(PID.TID 0000.0001)     ;
(PID.TID 0000.0001) PTRACERS_ImplVertAdv = /* implicit vert. advection flag */
(PID.TID 0000.0001)                   F
(PID.TID 0000.0001)     ;
(PID.TID 0000.0001) PTRACERS_MultiDimAdv = /* tracer uses Multi-Dim advection */
(PID.TID 0000.0001)                   T
(PID.TID 0000.0001)     ;
(PID.TID 0000.0001) PTRACERS_AdamsBashGtr = /* apply AB on tracer tendency */
(PID.TID 0000.0001)                   F
(PID.TID 0000.0001)     ;
(PID.TID 0000.0001) PTRACERS_AdamsBash_Tr = /* apply AB on passive tracer */
(PID.TID 0000.0001)                   F
(PID.TID 0000.0001)     ;
(PID.TID 0000.0001) PTRACERS_diffKh = /* Laplacian Diffusivity */
(PID.TID 0000.0001)                 0.000000000000000E+00
(PID.TID 0000.0001)     ;
(PID.TID 0000.0001) PTRACERS_diffK4 = /* Biharmonic Diffusivity */
(PID.TID 0000.0001)                 0.000000000000000E+00
(PID.TID 0000.0001)     ;
(PID.TID 0000.0001) PTRACERS_diffKrNr = /* Vertical Diffusivity */
(PID.TID 0000.0001)    50 @  1.000000000000000E-05              /* K =  1: 50 */
(PID.TID 0000.0001)     ;
(PID.TID 0000.0001) PTRACERS_useGMRedi = /* apply GM-Redi */
(PID.TID 0000.0001)                   T
(PID.TID 0000.0001)     ;
(PID.TID 0000.0001) PTRACERS_useDWNSLP = /* apply DOWN-SLOPE Flow */
(PID.TID 0000.0001)                   F
(PID.TID 0000.0001)     ;
(PID.TID 0000.0001) PTRACERS_useKPP = /* apply KPP scheme */
(PID.TID 0000.0001)                   F
(PID.TID 0000.0001)     ;
(PID.TID 0000.0001) PTRACERS_ref = /* Reference vertical profile */
(PID.TID 0000.0001)    50 @  0.000000000000000E+00              /* K =  1: 50 */
(PID.TID 0000.0001)     ;
(PID.TID 0000.0001) PTRACERS_EvPrRn =/* tracer conc. in Evap. & Rain */
(PID.TID 0000.0001)                 1.234567000000000E+05
(PID.TID 0000.0001)     ;
(PID.TID 0000.0001)  -----------------------------------
(PID.TID 0000.0001)  tracer number :   25
(PID.TID 0000.0001) PTRACERS_names = /* Tracer short name */
(PID.TID 0000.0001)               'Phy04'
(PID.TID 0000.0001)     ;
(PID.TID 0000.0001) PTRACERS_long_names = /* Tracer long name */
(PID.TID 0000.0001)               ''
(PID.TID 0000.0001)     ;
(PID.TID 0000.0001) PTRACERS_ioLabel = /* tracer IO Label */
(PID.TID 0000.0001)               '25'
(PID.TID 0000.0001)     ;
(PID.TID 0000.0001) PTRACERS_advScheme = /* Advection Scheme */
(PID.TID 0000.0001)                      33
(PID.TID 0000.0001)     ;
(PID.TID 0000.0001) PTRACERS_SOM_Advection = /* tracer uses SOM advection scheme */
(PID.TID 0000.0001)                   F
(PID.TID 0000.0001)     ;
(PID.TID 0000.0001) PTRACERS_ImplVertAdv = /* implicit vert. advection flag */
(PID.TID 0000.0001)                   F
(PID.TID 0000.0001)     ;
(PID.TID 0000.0001) PTRACERS_MultiDimAdv = /* tracer uses Multi-Dim advection */
(PID.TID 0000.0001)                   T
(PID.TID 0000.0001)     ;
(PID.TID 0000.0001) PTRACERS_AdamsBashGtr = /* apply AB on tracer tendency */
(PID.TID 0000.0001)                   F
(PID.TID 0000.0001)     ;
(PID.TID 0000.0001) PTRACERS_AdamsBash_Tr = /* apply AB on passive tracer */
(PID.TID 0000.0001)                   F
(PID.TID 0000.0001)     ;
(PID.TID 0000.0001) PTRACERS_diffKh = /* Laplacian Diffusivity */
(PID.TID 0000.0001)                 0.000000000000000E+00
(PID.TID 0000.0001)     ;
(PID.TID 0000.0001) PTRACERS_diffK4 = /* Biharmonic Diffusivity */
(PID.TID 0000.0001)                 0.000000000000000E+00
(PID.TID 0000.0001)     ;
(PID.TID 0000.0001) PTRACERS_diffKrNr = /* Vertical Diffusivity */
(PID.TID 0000.0001)    50 @  1.000000000000000E-05              /* K =  1: 50 */
(PID.TID 0000.0001)     ;
(PID.TID 0000.0001) PTRACERS_useGMRedi = /* apply GM-Redi */
(PID.TID 0000.0001)                   T
(PID.TID 0000.0001)     ;
(PID.TID 0000.0001) PTRACERS_useDWNSLP = /* apply DOWN-SLOPE Flow */
(PID.TID 0000.0001)                   F
(PID.TID 0000.0001)     ;
(PID.TID 0000.0001) PTRACERS_useKPP = /* apply KPP scheme */
(PID.TID 0000.0001)                   F
(PID.TID 0000.0001)     ;
(PID.TID 0000.0001) PTRACERS_ref = /* Reference vertical profile */
(PID.TID 0000.0001)    50 @  0.000000000000000E+00              /* K =  1: 50 */
(PID.TID 0000.0001)     ;
(PID.TID 0000.0001) PTRACERS_EvPrRn =/* tracer conc. in Evap. & Rain */
(PID.TID 0000.0001)                 1.234567000000000E+05
(PID.TID 0000.0001)     ;
(PID.TID 0000.0001)  -----------------------------------
(PID.TID 0000.0001)  tracer number :   26
(PID.TID 0000.0001) PTRACERS_names = /* Tracer short name */
(PID.TID 0000.0001)               'Phy05'
(PID.TID 0000.0001)     ;
(PID.TID 0000.0001) PTRACERS_long_names = /* Tracer long name */
(PID.TID 0000.0001)               ''
(PID.TID 0000.0001)     ;
(PID.TID 0000.0001) PTRACERS_ioLabel = /* tracer IO Label */
(PID.TID 0000.0001)               '26'
(PID.TID 0000.0001)     ;
(PID.TID 0000.0001) PTRACERS_advScheme = /* Advection Scheme */
(PID.TID 0000.0001)                      33
(PID.TID 0000.0001)     ;
(PID.TID 0000.0001) PTRACERS_SOM_Advection = /* tracer uses SOM advection scheme */
(PID.TID 0000.0001)                   F
(PID.TID 0000.0001)     ;
(PID.TID 0000.0001) PTRACERS_ImplVertAdv = /* implicit vert. advection flag */
(PID.TID 0000.0001)                   F
(PID.TID 0000.0001)     ;
(PID.TID 0000.0001) PTRACERS_MultiDimAdv = /* tracer uses Multi-Dim advection */
(PID.TID 0000.0001)                   T
(PID.TID 0000.0001)     ;
(PID.TID 0000.0001) PTRACERS_AdamsBashGtr = /* apply AB on tracer tendency */
(PID.TID 0000.0001)                   F
(PID.TID 0000.0001)     ;
(PID.TID 0000.0001) PTRACERS_AdamsBash_Tr = /* apply AB on passive tracer */
(PID.TID 0000.0001)                   F
(PID.TID 0000.0001)     ;
(PID.TID 0000.0001) PTRACERS_diffKh = /* Laplacian Diffusivity */
(PID.TID 0000.0001)                 0.000000000000000E+00
(PID.TID 0000.0001)     ;
(PID.TID 0000.0001) PTRACERS_diffK4 = /* Biharmonic Diffusivity */
(PID.TID 0000.0001)                 0.000000000000000E+00
(PID.TID 0000.0001)     ;
(PID.TID 0000.0001) PTRACERS_diffKrNr = /* Vertical Diffusivity */
(PID.TID 0000.0001)    50 @  1.000000000000000E-05              /* K =  1: 50 */
(PID.TID 0000.0001)     ;
(PID.TID 0000.0001) PTRACERS_useGMRedi = /* apply GM-Redi */
(PID.TID 0000.0001)                   T
(PID.TID 0000.0001)     ;
(PID.TID 0000.0001) PTRACERS_useDWNSLP = /* apply DOWN-SLOPE Flow */
(PID.TID 0000.0001)                   F
(PID.TID 0000.0001)     ;
(PID.TID 0000.0001) PTRACERS_useKPP = /* apply KPP scheme */
(PID.TID 0000.0001)                   F
(PID.TID 0000.0001)     ;
(PID.TID 0000.0001) PTRACERS_ref = /* Reference vertical profile */
(PID.TID 0000.0001)    50 @  0.000000000000000E+00              /* K =  1: 50 */
(PID.TID 0000.0001)     ;
(PID.TID 0000.0001) PTRACERS_EvPrRn =/* tracer conc. in Evap. & Rain */
(PID.TID 0000.0001)                 1.234567000000000E+05
(PID.TID 0000.0001)     ;
(PID.TID 0000.0001)  -----------------------------------
(PID.TID 0000.0001)  tracer number :   27
(PID.TID 0000.0001) PTRACERS_names = /* Tracer short name */
(PID.TID 0000.0001)               'Chl01'
(PID.TID 0000.0001)     ;
(PID.TID 0000.0001) PTRACERS_long_names = /* Tracer long name */
(PID.TID 0000.0001)               ''
(PID.TID 0000.0001)     ;
(PID.TID 0000.0001) PTRACERS_ioLabel = /* tracer IO Label */
(PID.TID 0000.0001)               '27'
(PID.TID 0000.0001)     ;
(PID.TID 0000.0001) PTRACERS_advScheme = /* Advection Scheme */
(PID.TID 0000.0001)                      33
(PID.TID 0000.0001)     ;
(PID.TID 0000.0001) PTRACERS_SOM_Advection = /* tracer uses SOM advection scheme */
(PID.TID 0000.0001)                   F
(PID.TID 0000.0001)     ;
(PID.TID 0000.0001) PTRACERS_ImplVertAdv = /* implicit vert. advection flag */
(PID.TID 0000.0001)                   F
(PID.TID 0000.0001)     ;
(PID.TID 0000.0001) PTRACERS_MultiDimAdv = /* tracer uses Multi-Dim advection */
(PID.TID 0000.0001)                   T
(PID.TID 0000.0001)     ;
(PID.TID 0000.0001) PTRACERS_AdamsBashGtr = /* apply AB on tracer tendency */
(PID.TID 0000.0001)                   F
(PID.TID 0000.0001)     ;
(PID.TID 0000.0001) PTRACERS_AdamsBash_Tr = /* apply AB on passive tracer */
(PID.TID 0000.0001)                   F
(PID.TID 0000.0001)     ;
(PID.TID 0000.0001) PTRACERS_diffKh = /* Laplacian Diffusivity */
(PID.TID 0000.0001)                 0.000000000000000E+00
(PID.TID 0000.0001)     ;
(PID.TID 0000.0001) PTRACERS_diffK4 = /* Biharmonic Diffusivity */
(PID.TID 0000.0001)                 0.000000000000000E+00
(PID.TID 0000.0001)     ;
(PID.TID 0000.0001) PTRACERS_diffKrNr = /* Vertical Diffusivity */
(PID.TID 0000.0001)    50 @  1.000000000000000E-05              /* K =  1: 50 */
(PID.TID 0000.0001)     ;
(PID.TID 0000.0001) PTRACERS_useGMRedi = /* apply GM-Redi */
(PID.TID 0000.0001)                   T
(PID.TID 0000.0001)     ;
(PID.TID 0000.0001) PTRACERS_useDWNSLP = /* apply DOWN-SLOPE Flow */
(PID.TID 0000.0001)                   F
(PID.TID 0000.0001)     ;
(PID.TID 0000.0001) PTRACERS_useKPP = /* apply KPP scheme */
(PID.TID 0000.0001)                   F
(PID.TID 0000.0001)     ;
(PID.TID 0000.0001) PTRACERS_ref = /* Reference vertical profile */
(PID.TID 0000.0001)    50 @  0.000000000000000E+00              /* K =  1: 50 */
(PID.TID 0000.0001)     ;
(PID.TID 0000.0001) PTRACERS_EvPrRn =/* tracer conc. in Evap. & Rain */
(PID.TID 0000.0001)                 1.234567000000000E+05
(PID.TID 0000.0001)     ;
(PID.TID 0000.0001)  -----------------------------------
(PID.TID 0000.0001)  tracer number :   28
(PID.TID 0000.0001) PTRACERS_names = /* Tracer short name */
(PID.TID 0000.0001)               'Chl02'
(PID.TID 0000.0001)     ;
(PID.TID 0000.0001) PTRACERS_long_names = /* Tracer long name */
(PID.TID 0000.0001)               ''
(PID.TID 0000.0001)     ;
(PID.TID 0000.0001) PTRACERS_ioLabel = /* tracer IO Label */
(PID.TID 0000.0001)               '28'
(PID.TID 0000.0001)     ;
(PID.TID 0000.0001) PTRACERS_advScheme = /* Advection Scheme */
(PID.TID 0000.0001)                      33
(PID.TID 0000.0001)     ;
(PID.TID 0000.0001) PTRACERS_SOM_Advection = /* tracer uses SOM advection scheme */
(PID.TID 0000.0001)                   F
(PID.TID 0000.0001)     ;
(PID.TID 0000.0001) PTRACERS_ImplVertAdv = /* implicit vert. advection flag */
(PID.TID 0000.0001)                   F
(PID.TID 0000.0001)     ;
(PID.TID 0000.0001) PTRACERS_MultiDimAdv = /* tracer uses Multi-Dim advection */
(PID.TID 0000.0001)                   T
(PID.TID 0000.0001)     ;
(PID.TID 0000.0001) PTRACERS_AdamsBashGtr = /* apply AB on tracer tendency */
(PID.TID 0000.0001)                   F
(PID.TID 0000.0001)     ;
(PID.TID 0000.0001) PTRACERS_AdamsBash_Tr = /* apply AB on passive tracer */
(PID.TID 0000.0001)                   F
(PID.TID 0000.0001)     ;
(PID.TID 0000.0001) PTRACERS_diffKh = /* Laplacian Diffusivity */
(PID.TID 0000.0001)                 0.000000000000000E+00
(PID.TID 0000.0001)     ;
(PID.TID 0000.0001) PTRACERS_diffK4 = /* Biharmonic Diffusivity */
(PID.TID 0000.0001)                 0.000000000000000E+00
(PID.TID 0000.0001)     ;
(PID.TID 0000.0001) PTRACERS_diffKrNr = /* Vertical Diffusivity */
(PID.TID 0000.0001)    50 @  1.000000000000000E-05              /* K =  1: 50 */
(PID.TID 0000.0001)     ;
(PID.TID 0000.0001) PTRACERS_useGMRedi = /* apply GM-Redi */
(PID.TID 0000.0001)                   T
(PID.TID 0000.0001)     ;
(PID.TID 0000.0001) PTRACERS_useDWNSLP = /* apply DOWN-SLOPE Flow */
(PID.TID 0000.0001)                   F
(PID.TID 0000.0001)     ;
(PID.TID 0000.0001) PTRACERS_useKPP = /* apply KPP scheme */
(PID.TID 0000.0001)                   F
(PID.TID 0000.0001)     ;
(PID.TID 0000.0001) PTRACERS_ref = /* Reference vertical profile */
(PID.TID 0000.0001)    50 @  0.000000000000000E+00              /* K =  1: 50 */
(PID.TID 0000.0001)     ;
(PID.TID 0000.0001) PTRACERS_EvPrRn =/* tracer conc. in Evap. & Rain */
(PID.TID 0000.0001)                 1.234567000000000E+05
(PID.TID 0000.0001)     ;
(PID.TID 0000.0001)  -----------------------------------
(PID.TID 0000.0001)  tracer number :   29
(PID.TID 0000.0001) PTRACERS_names = /* Tracer short name */
(PID.TID 0000.0001)               'Chl03'
(PID.TID 0000.0001)     ;
(PID.TID 0000.0001) PTRACERS_long_names = /* Tracer long name */
(PID.TID 0000.0001)               ''
(PID.TID 0000.0001)     ;
(PID.TID 0000.0001) PTRACERS_ioLabel = /* tracer IO Label */
(PID.TID 0000.0001)               '29'
(PID.TID 0000.0001)     ;
(PID.TID 0000.0001) PTRACERS_advScheme = /* Advection Scheme */
(PID.TID 0000.0001)                      33
(PID.TID 0000.0001)     ;
(PID.TID 0000.0001) PTRACERS_SOM_Advection = /* tracer uses SOM advection scheme */
(PID.TID 0000.0001)                   F
(PID.TID 0000.0001)     ;
(PID.TID 0000.0001) PTRACERS_ImplVertAdv = /* implicit vert. advection flag */
(PID.TID 0000.0001)                   F
(PID.TID 0000.0001)     ;
(PID.TID 0000.0001) PTRACERS_MultiDimAdv = /* tracer uses Multi-Dim advection */
(PID.TID 0000.0001)                   T
(PID.TID 0000.0001)     ;
(PID.TID 0000.0001) PTRACERS_AdamsBashGtr = /* apply AB on tracer tendency */
(PID.TID 0000.0001)                   F
(PID.TID 0000.0001)     ;
(PID.TID 0000.0001) PTRACERS_AdamsBash_Tr = /* apply AB on passive tracer */
(PID.TID 0000.0001)                   F
(PID.TID 0000.0001)     ;
(PID.TID 0000.0001) PTRACERS_diffKh = /* Laplacian Diffusivity */
(PID.TID 0000.0001)                 0.000000000000000E+00
(PID.TID 0000.0001)     ;
(PID.TID 0000.0001) PTRACERS_diffK4 = /* Biharmonic Diffusivity */
(PID.TID 0000.0001)                 0.000000000000000E+00
(PID.TID 0000.0001)     ;
(PID.TID 0000.0001) PTRACERS_diffKrNr = /* Vertical Diffusivity */
(PID.TID 0000.0001)    50 @  1.000000000000000E-05              /* K =  1: 50 */
(PID.TID 0000.0001)     ;
(PID.TID 0000.0001) PTRACERS_useGMRedi = /* apply GM-Redi */
(PID.TID 0000.0001)                   T
(PID.TID 0000.0001)     ;
(PID.TID 0000.0001) PTRACERS_useDWNSLP = /* apply DOWN-SLOPE Flow */
(PID.TID 0000.0001)                   F
(PID.TID 0000.0001)     ;
(PID.TID 0000.0001) PTRACERS_useKPP = /* apply KPP scheme */
(PID.TID 0000.0001)                   F
(PID.TID 0000.0001)     ;
(PID.TID 0000.0001) PTRACERS_ref = /* Reference vertical profile */
(PID.TID 0000.0001)    50 @  0.000000000000000E+00              /* K =  1: 50 */
(PID.TID 0000.0001)     ;
(PID.TID 0000.0001) PTRACERS_EvPrRn =/* tracer conc. in Evap. & Rain */
(PID.TID 0000.0001)                 1.234567000000000E+05
(PID.TID 0000.0001)     ;
(PID.TID 0000.0001)  -----------------------------------
(PID.TID 0000.0001)  tracer number :   30
(PID.TID 0000.0001) PTRACERS_names = /* Tracer short name */
(PID.TID 0000.0001)               'Chl04'
(PID.TID 0000.0001)     ;
(PID.TID 0000.0001) PTRACERS_long_names = /* Tracer long name */
(PID.TID 0000.0001)               ''
(PID.TID 0000.0001)     ;
(PID.TID 0000.0001) PTRACERS_ioLabel = /* tracer IO Label */
(PID.TID 0000.0001)               '30'
(PID.TID 0000.0001)     ;
(PID.TID 0000.0001) PTRACERS_advScheme = /* Advection Scheme */
(PID.TID 0000.0001)                      33
(PID.TID 0000.0001)     ;
(PID.TID 0000.0001) PTRACERS_SOM_Advection = /* tracer uses SOM advection scheme */
(PID.TID 0000.0001)                   F
(PID.TID 0000.0001)     ;
(PID.TID 0000.0001) PTRACERS_ImplVertAdv = /* implicit vert. advection flag */
(PID.TID 0000.0001)                   F
(PID.TID 0000.0001)     ;
(PID.TID 0000.0001) PTRACERS_MultiDimAdv = /* tracer uses Multi-Dim advection */
(PID.TID 0000.0001)                   T
(PID.TID 0000.0001)     ;
(PID.TID 0000.0001) PTRACERS_AdamsBashGtr = /* apply AB on tracer tendency */
(PID.TID 0000.0001)                   F
(PID.TID 0000.0001)     ;
(PID.TID 0000.0001) PTRACERS_AdamsBash_Tr = /* apply AB on passive tracer */
(PID.TID 0000.0001)                   F
(PID.TID 0000.0001)     ;
(PID.TID 0000.0001) PTRACERS_diffKh = /* Laplacian Diffusivity */
(PID.TID 0000.0001)                 0.000000000000000E+00
(PID.TID 0000.0001)     ;
(PID.TID 0000.0001) PTRACERS_diffK4 = /* Biharmonic Diffusivity */
(PID.TID 0000.0001)                 0.000000000000000E+00
(PID.TID 0000.0001)     ;
(PID.TID 0000.0001) PTRACERS_diffKrNr = /* Vertical Diffusivity */
(PID.TID 0000.0001)    50 @  1.000000000000000E-05              /* K =  1: 50 */
(PID.TID 0000.0001)     ;
(PID.TID 0000.0001) PTRACERS_useGMRedi = /* apply GM-Redi */
(PID.TID 0000.0001)                   T
(PID.TID 0000.0001)     ;
(PID.TID 0000.0001) PTRACERS_useDWNSLP = /* apply DOWN-SLOPE Flow */
(PID.TID 0000.0001)                   F
(PID.TID 0000.0001)     ;
(PID.TID 0000.0001) PTRACERS_useKPP = /* apply KPP scheme */
(PID.TID 0000.0001)                   F
(PID.TID 0000.0001)     ;
(PID.TID 0000.0001) PTRACERS_ref = /* Reference vertical profile */
(PID.TID 0000.0001)    50 @  0.000000000000000E+00              /* K =  1: 50 */
(PID.TID 0000.0001)     ;
(PID.TID 0000.0001) PTRACERS_EvPrRn =/* tracer conc. in Evap. & Rain */
(PID.TID 0000.0001)                 1.234567000000000E+05
(PID.TID 0000.0001)     ;
(PID.TID 0000.0001)  -----------------------------------
(PID.TID 0000.0001)  tracer number :   31
(PID.TID 0000.0001) PTRACERS_names = /* Tracer short name */
(PID.TID 0000.0001)               'Chl05'
(PID.TID 0000.0001)     ;
(PID.TID 0000.0001) PTRACERS_long_names = /* Tracer long name */
(PID.TID 0000.0001)               ''
(PID.TID 0000.0001)     ;
(PID.TID 0000.0001) PTRACERS_ioLabel = /* tracer IO Label */
(PID.TID 0000.0001)               '31'
(PID.TID 0000.0001)     ;
(PID.TID 0000.0001) PTRACERS_advScheme = /* Advection Scheme */
(PID.TID 0000.0001)                      33
(PID.TID 0000.0001)     ;
(PID.TID 0000.0001) PTRACERS_SOM_Advection = /* tracer uses SOM advection scheme */
(PID.TID 0000.0001)                   F
(PID.TID 0000.0001)     ;
(PID.TID 0000.0001) PTRACERS_ImplVertAdv = /* implicit vert. advection flag */
(PID.TID 0000.0001)                   F
(PID.TID 0000.0001)     ;
(PID.TID 0000.0001) PTRACERS_MultiDimAdv = /* tracer uses Multi-Dim advection */
(PID.TID 0000.0001)                   T
(PID.TID 0000.0001)     ;
(PID.TID 0000.0001) PTRACERS_AdamsBashGtr = /* apply AB on tracer tendency */
(PID.TID 0000.0001)                   F
(PID.TID 0000.0001)     ;
(PID.TID 0000.0001) PTRACERS_AdamsBash_Tr = /* apply AB on passive tracer */
(PID.TID 0000.0001)                   F
(PID.TID 0000.0001)     ;
(PID.TID 0000.0001) PTRACERS_diffKh = /* Laplacian Diffusivity */
(PID.TID 0000.0001)                 0.000000000000000E+00
(PID.TID 0000.0001)     ;
(PID.TID 0000.0001) PTRACERS_diffK4 = /* Biharmonic Diffusivity */
(PID.TID 0000.0001)                 0.000000000000000E+00
(PID.TID 0000.0001)     ;
(PID.TID 0000.0001) PTRACERS_diffKrNr = /* Vertical Diffusivity */
(PID.TID 0000.0001)    50 @  1.000000000000000E-05              /* K =  1: 50 */
(PID.TID 0000.0001)     ;
(PID.TID 0000.0001) PTRACERS_useGMRedi = /* apply GM-Redi */
(PID.TID 0000.0001)                   T
(PID.TID 0000.0001)     ;
(PID.TID 0000.0001) PTRACERS_useDWNSLP = /* apply DOWN-SLOPE Flow */
(PID.TID 0000.0001)                   F
(PID.TID 0000.0001)     ;
(PID.TID 0000.0001) PTRACERS_useKPP = /* apply KPP scheme */
(PID.TID 0000.0001)                   F
(PID.TID 0000.0001)     ;
(PID.TID 0000.0001) PTRACERS_ref = /* Reference vertical profile */
(PID.TID 0000.0001)    50 @  0.000000000000000E+00              /* K =  1: 50 */
(PID.TID 0000.0001)     ;
(PID.TID 0000.0001) PTRACERS_EvPrRn =/* tracer conc. in Evap. & Rain */
(PID.TID 0000.0001)                 1.234567000000000E+05
(PID.TID 0000.0001)     ;
(PID.TID 0000.0001)  -----------------------------------
(PID.TID 0000.0001)  tracer number :   32
(PID.TID 0000.0001) PTRACERS_names = /* Tracer short name */
(PID.TID 0000.0001)               'DIC'
(PID.TID 0000.0001)     ;
(PID.TID 0000.0001) PTRACERS_long_names = /* Tracer long name */
(PID.TID 0000.0001)               ''
(PID.TID 0000.0001)     ;
(PID.TID 0000.0001) PTRACERS_ioLabel = /* tracer IO Label */
(PID.TID 0000.0001)               '32'
(PID.TID 0000.0001)     ;
(PID.TID 0000.0001) PTRACERS_advScheme = /* Advection Scheme */
(PID.TID 0000.0001)                      33
(PID.TID 0000.0001)     ;
(PID.TID 0000.0001) PTRACERS_SOM_Advection = /* tracer uses SOM advection scheme */
(PID.TID 0000.0001)                   F
(PID.TID 0000.0001)     ;
(PID.TID 0000.0001) PTRACERS_ImplVertAdv = /* implicit vert. advection flag */
(PID.TID 0000.0001)                   F
(PID.TID 0000.0001)     ;
(PID.TID 0000.0001) PTRACERS_MultiDimAdv = /* tracer uses Multi-Dim advection */
(PID.TID 0000.0001)                   T
(PID.TID 0000.0001)     ;
(PID.TID 0000.0001) PTRACERS_AdamsBashGtr = /* apply AB on tracer tendency */
(PID.TID 0000.0001)                   F
(PID.TID 0000.0001)     ;
(PID.TID 0000.0001) PTRACERS_AdamsBash_Tr = /* apply AB on passive tracer */
(PID.TID 0000.0001)                   F
(PID.TID 0000.0001)     ;
(PID.TID 0000.0001) PTRACERS_diffKh = /* Laplacian Diffusivity */
(PID.TID 0000.0001)                 0.000000000000000E+00
(PID.TID 0000.0001)     ;
(PID.TID 0000.0001) PTRACERS_diffK4 = /* Biharmonic Diffusivity */
(PID.TID 0000.0001)                 0.000000000000000E+00
(PID.TID 0000.0001)     ;
(PID.TID 0000.0001) PTRACERS_diffKrNr = /* Vertical Diffusivity */
(PID.TID 0000.0001)    50 @  1.000000000000000E-05              /* K =  1: 50 */
(PID.TID 0000.0001)     ;
(PID.TID 0000.0001) PTRACERS_useGMRedi = /* apply GM-Redi */
(PID.TID 0000.0001)                   T
(PID.TID 0000.0001)     ;
(PID.TID 0000.0001) PTRACERS_useDWNSLP = /* apply DOWN-SLOPE Flow */
(PID.TID 0000.0001)                   F
(PID.TID 0000.0001)     ;
(PID.TID 0000.0001) PTRACERS_useKPP = /* apply KPP scheme */
(PID.TID 0000.0001)                   F
(PID.TID 0000.0001)     ;
(PID.TID 0000.0001) PTRACERS_ref = /* Reference vertical profile */
(PID.TID 0000.0001)    50 @  0.000000000000000E+00              /* K =  1: 50 */
(PID.TID 0000.0001)     ;
(PID.TID 0000.0001) PTRACERS_EvPrRn =/* tracer conc. in Evap. & Rain */
(PID.TID 0000.0001)                 0.000000000000000E+00
(PID.TID 0000.0001)     ;
(PID.TID 0000.0001)  -----------------------------------
(PID.TID 0000.0001)  tracer number :   33
(PID.TID 0000.0001) PTRACERS_names = /* Tracer short name */
(PID.TID 0000.0001)               'DOC'
(PID.TID 0000.0001)     ;
(PID.TID 0000.0001) PTRACERS_long_names = /* Tracer long name */
(PID.TID 0000.0001)               ''
(PID.TID 0000.0001)     ;
(PID.TID 0000.0001) PTRACERS_ioLabel = /* tracer IO Label */
(PID.TID 0000.0001)               '33'
(PID.TID 0000.0001)     ;
(PID.TID 0000.0001) PTRACERS_advScheme = /* Advection Scheme */
(PID.TID 0000.0001)                      33
(PID.TID 0000.0001)     ;
(PID.TID 0000.0001) PTRACERS_SOM_Advection = /* tracer uses SOM advection scheme */
(PID.TID 0000.0001)                   F
(PID.TID 0000.0001)     ;
(PID.TID 0000.0001) PTRACERS_ImplVertAdv = /* implicit vert. advection flag */
(PID.TID 0000.0001)                   F
(PID.TID 0000.0001)     ;
(PID.TID 0000.0001) PTRACERS_MultiDimAdv = /* tracer uses Multi-Dim advection */
(PID.TID 0000.0001)                   T
(PID.TID 0000.0001)     ;
(PID.TID 0000.0001) PTRACERS_AdamsBashGtr = /* apply AB on tracer tendency */
(PID.TID 0000.0001)                   F
(PID.TID 0000.0001)     ;
(PID.TID 0000.0001) PTRACERS_AdamsBash_Tr = /* apply AB on passive tracer */
(PID.TID 0000.0001)                   F
(PID.TID 0000.0001)     ;
(PID.TID 0000.0001) PTRACERS_diffKh = /* Laplacian Diffusivity */
(PID.TID 0000.0001)                 0.000000000000000E+00
(PID.TID 0000.0001)     ;
(PID.TID 0000.0001) PTRACERS_diffK4 = /* Biharmonic Diffusivity */
(PID.TID 0000.0001)                 0.000000000000000E+00
(PID.TID 0000.0001)     ;
(PID.TID 0000.0001) PTRACERS_diffKrNr = /* Vertical Diffusivity */
(PID.TID 0000.0001)    50 @  1.000000000000000E-05              /* K =  1: 50 */
(PID.TID 0000.0001)     ;
(PID.TID 0000.0001) PTRACERS_useGMRedi = /* apply GM-Redi */
(PID.TID 0000.0001)                   T
(PID.TID 0000.0001)     ;
(PID.TID 0000.0001) PTRACERS_useDWNSLP = /* apply DOWN-SLOPE Flow */
(PID.TID 0000.0001)                   F
(PID.TID 0000.0001)     ;
(PID.TID 0000.0001) PTRACERS_useKPP = /* apply KPP scheme */
(PID.TID 0000.0001)                   F
(PID.TID 0000.0001)     ;
(PID.TID 0000.0001) PTRACERS_ref = /* Reference vertical profile */
(PID.TID 0000.0001)    50 @  0.000000000000000E+00              /* K =  1: 50 */
(PID.TID 0000.0001)     ;
(PID.TID 0000.0001) PTRACERS_EvPrRn =/* tracer conc. in Evap. & Rain */
(PID.TID 0000.0001)                 1.234567000000000E+05
(PID.TID 0000.0001)     ;
(PID.TID 0000.0001)  -----------------------------------
(PID.TID 0000.0001)  tracer number :   34
(PID.TID 0000.0001) PTRACERS_names = /* Tracer short name */
(PID.TID 0000.0001)               'POC'
(PID.TID 0000.0001)     ;
(PID.TID 0000.0001) PTRACERS_long_names = /* Tracer long name */
(PID.TID 0000.0001)               ''
(PID.TID 0000.0001)     ;
(PID.TID 0000.0001) PTRACERS_ioLabel = /* tracer IO Label */
(PID.TID 0000.0001)               '34'
(PID.TID 0000.0001)     ;
(PID.TID 0000.0001) PTRACERS_advScheme = /* Advection Scheme */
(PID.TID 0000.0001)                      33
(PID.TID 0000.0001)     ;
(PID.TID 0000.0001) PTRACERS_SOM_Advection = /* tracer uses SOM advection scheme */
(PID.TID 0000.0001)                   F
(PID.TID 0000.0001)     ;
(PID.TID 0000.0001) PTRACERS_ImplVertAdv = /* implicit vert. advection flag */
(PID.TID 0000.0001)                   F
(PID.TID 0000.0001)     ;
(PID.TID 0000.0001) PTRACERS_MultiDimAdv = /* tracer uses Multi-Dim advection */
(PID.TID 0000.0001)                   T
(PID.TID 0000.0001)     ;
(PID.TID 0000.0001) PTRACERS_AdamsBashGtr = /* apply AB on tracer tendency */
(PID.TID 0000.0001)                   F
(PID.TID 0000.0001)     ;
(PID.TID 0000.0001) PTRACERS_AdamsBash_Tr = /* apply AB on passive tracer */
(PID.TID 0000.0001)                   F
(PID.TID 0000.0001)     ;
(PID.TID 0000.0001) PTRACERS_diffKh = /* Laplacian Diffusivity */
(PID.TID 0000.0001)                 0.000000000000000E+00
(PID.TID 0000.0001)     ;
(PID.TID 0000.0001) PTRACERS_diffK4 = /* Biharmonic Diffusivity */
(PID.TID 0000.0001)                 0.000000000000000E+00
(PID.TID 0000.0001)     ;
(PID.TID 0000.0001) PTRACERS_diffKrNr = /* Vertical Diffusivity */
(PID.TID 0000.0001)    50 @  1.000000000000000E-05              /* K =  1: 50 */
(PID.TID 0000.0001)     ;
(PID.TID 0000.0001) PTRACERS_useGMRedi = /* apply GM-Redi */
(PID.TID 0000.0001)                   T
(PID.TID 0000.0001)     ;
(PID.TID 0000.0001) PTRACERS_useDWNSLP = /* apply DOWN-SLOPE Flow */
(PID.TID 0000.0001)                   F
(PID.TID 0000.0001)     ;
(PID.TID 0000.0001) PTRACERS_useKPP = /* apply KPP scheme */
(PID.TID 0000.0001)                   F
(PID.TID 0000.0001)     ;
(PID.TID 0000.0001) PTRACERS_ref = /* Reference vertical profile */
(PID.TID 0000.0001)    50 @  0.000000000000000E+00              /* K =  1: 50 */
(PID.TID 0000.0001)     ;
(PID.TID 0000.0001) PTRACERS_EvPrRn =/* tracer conc. in Evap. & Rain */
(PID.TID 0000.0001)                 1.234567000000000E+05
(PID.TID 0000.0001)     ;
(PID.TID 0000.0001)  -----------------------------------
(PID.TID 0000.0001)  tracer number :   35
(PID.TID 0000.0001) PTRACERS_names = /* Tracer short name */
(PID.TID 0000.0001)               'PIC'
(PID.TID 0000.0001)     ;
(PID.TID 0000.0001) PTRACERS_long_names = /* Tracer long name */
(PID.TID 0000.0001)               ''
(PID.TID 0000.0001)     ;
(PID.TID 0000.0001) PTRACERS_ioLabel = /* tracer IO Label */
(PID.TID 0000.0001)               '35'
(PID.TID 0000.0001)     ;
(PID.TID 0000.0001) PTRACERS_advScheme = /* Advection Scheme */
(PID.TID 0000.0001)                      33
(PID.TID 0000.0001)     ;
(PID.TID 0000.0001) PTRACERS_SOM_Advection = /* tracer uses SOM advection scheme */
(PID.TID 0000.0001)                   F
(PID.TID 0000.0001)     ;
(PID.TID 0000.0001) PTRACERS_ImplVertAdv = /* implicit vert. advection flag */
(PID.TID 0000.0001)                   F
(PID.TID 0000.0001)     ;
(PID.TID 0000.0001) PTRACERS_MultiDimAdv = /* tracer uses Multi-Dim advection */
(PID.TID 0000.0001)                   T
(PID.TID 0000.0001)     ;
(PID.TID 0000.0001) PTRACERS_AdamsBashGtr = /* apply AB on tracer tendency */
(PID.TID 0000.0001)                   F
(PID.TID 0000.0001)     ;
(PID.TID 0000.0001) PTRACERS_AdamsBash_Tr = /* apply AB on passive tracer */
(PID.TID 0000.0001)                   F
(PID.TID 0000.0001)     ;
(PID.TID 0000.0001) PTRACERS_diffKh = /* Laplacian Diffusivity */
(PID.TID 0000.0001)                 0.000000000000000E+00
(PID.TID 0000.0001)     ;
(PID.TID 0000.0001) PTRACERS_diffK4 = /* Biharmonic Diffusivity */
(PID.TID 0000.0001)                 0.000000000000000E+00
(PID.TID 0000.0001)     ;
(PID.TID 0000.0001) PTRACERS_diffKrNr = /* Vertical Diffusivity */
(PID.TID 0000.0001)    50 @  1.000000000000000E-05              /* K =  1: 50 */
(PID.TID 0000.0001)     ;
(PID.TID 0000.0001) PTRACERS_useGMRedi = /* apply GM-Redi */
(PID.TID 0000.0001)                   T
(PID.TID 0000.0001)     ;
(PID.TID 0000.0001) PTRACERS_useDWNSLP = /* apply DOWN-SLOPE Flow */
(PID.TID 0000.0001)                   F
(PID.TID 0000.0001)     ;
(PID.TID 0000.0001) PTRACERS_useKPP = /* apply KPP scheme */
(PID.TID 0000.0001)                   F
(PID.TID 0000.0001)     ;
(PID.TID 0000.0001) PTRACERS_ref = /* Reference vertical profile */
(PID.TID 0000.0001)    50 @  0.000000000000000E+00              /* K =  1: 50 */
(PID.TID 0000.0001)     ;
(PID.TID 0000.0001) PTRACERS_EvPrRn =/* tracer conc. in Evap. & Rain */
(PID.TID 0000.0001)                 1.234567000000000E+05
(PID.TID 0000.0001)     ;
(PID.TID 0000.0001)  -----------------------------------
(PID.TID 0000.0001)  tracer number :   36
(PID.TID 0000.0001) PTRACERS_names = /* Tracer short name */
(PID.TID 0000.0001)               'ALK'
(PID.TID 0000.0001)     ;
(PID.TID 0000.0001) PTRACERS_long_names = /* Tracer long name */
(PID.TID 0000.0001)               ''
(PID.TID 0000.0001)     ;
(PID.TID 0000.0001) PTRACERS_ioLabel = /* tracer IO Label */
(PID.TID 0000.0001)               '36'
(PID.TID 0000.0001)     ;
(PID.TID 0000.0001) PTRACERS_advScheme = /* Advection Scheme */
(PID.TID 0000.0001)                      33
(PID.TID 0000.0001)     ;
(PID.TID 0000.0001) PTRACERS_SOM_Advection = /* tracer uses SOM advection scheme */
(PID.TID 0000.0001)                   F
(PID.TID 0000.0001)     ;
(PID.TID 0000.0001) PTRACERS_ImplVertAdv = /* implicit vert. advection flag */
(PID.TID 0000.0001)                   F
(PID.TID 0000.0001)     ;
(PID.TID 0000.0001) PTRACERS_MultiDimAdv = /* tracer uses Multi-Dim advection */
(PID.TID 0000.0001)                   T
(PID.TID 0000.0001)     ;
(PID.TID 0000.0001) PTRACERS_AdamsBashGtr = /* apply AB on tracer tendency */
(PID.TID 0000.0001)                   F
(PID.TID 0000.0001)     ;
(PID.TID 0000.0001) PTRACERS_AdamsBash_Tr = /* apply AB on passive tracer */
(PID.TID 0000.0001)                   F
(PID.TID 0000.0001)     ;
(PID.TID 0000.0001) PTRACERS_diffKh = /* Laplacian Diffusivity */
(PID.TID 0000.0001)                 0.000000000000000E+00
(PID.TID 0000.0001)     ;
(PID.TID 0000.0001) PTRACERS_diffK4 = /* Biharmonic Diffusivity */
(PID.TID 0000.0001)                 0.000000000000000E+00
(PID.TID 0000.0001)     ;
(PID.TID 0000.0001) PTRACERS_diffKrNr = /* Vertical Diffusivity */
(PID.TID 0000.0001)    50 @  1.000000000000000E-05              /* K =  1: 50 */
(PID.TID 0000.0001)     ;
(PID.TID 0000.0001) PTRACERS_useGMRedi = /* apply GM-Redi */
(PID.TID 0000.0001)                   T
(PID.TID 0000.0001)     ;
(PID.TID 0000.0001) PTRACERS_useDWNSLP = /* apply DOWN-SLOPE Flow */
(PID.TID 0000.0001)                   F
(PID.TID 0000.0001)     ;
(PID.TID 0000.0001) PTRACERS_useKPP = /* apply KPP scheme */
(PID.TID 0000.0001)                   F
(PID.TID 0000.0001)     ;
(PID.TID 0000.0001) PTRACERS_ref = /* Reference vertical profile */
(PID.TID 0000.0001)    50 @  0.000000000000000E+00              /* K =  1: 50 */
(PID.TID 0000.0001)     ;
(PID.TID 0000.0001) PTRACERS_EvPrRn =/* tracer conc. in Evap. & Rain */
(PID.TID 0000.0001)                 0.000000000000000E+00
(PID.TID 0000.0001)     ;
(PID.TID 0000.0001)  -----------------------------------
(PID.TID 0000.0001)  tracer number :   37
(PID.TID 0000.0001) PTRACERS_names = /* Tracer short name */
(PID.TID 0000.0001)               'O2'
(PID.TID 0000.0001)     ;
(PID.TID 0000.0001) PTRACERS_long_names = /* Tracer long name */
(PID.TID 0000.0001)               ''
(PID.TID 0000.0001)     ;
(PID.TID 0000.0001) PTRACERS_ioLabel = /* tracer IO Label */
(PID.TID 0000.0001)               '37'
(PID.TID 0000.0001)     ;
(PID.TID 0000.0001) PTRACERS_advScheme = /* Advection Scheme */
(PID.TID 0000.0001)                      33
(PID.TID 0000.0001)     ;
(PID.TID 0000.0001) PTRACERS_SOM_Advection = /* tracer uses SOM advection scheme */
(PID.TID 0000.0001)                   F
(PID.TID 0000.0001)     ;
(PID.TID 0000.0001) PTRACERS_ImplVertAdv = /* implicit vert. advection flag */
(PID.TID 0000.0001)                   F
(PID.TID 0000.0001)     ;
(PID.TID 0000.0001) PTRACERS_MultiDimAdv = /* tracer uses Multi-Dim advection */
(PID.TID 0000.0001)                   T
(PID.TID 0000.0001)     ;
(PID.TID 0000.0001) PTRACERS_AdamsBashGtr = /* apply AB on tracer tendency */
(PID.TID 0000.0001)                   F
(PID.TID 0000.0001)     ;
(PID.TID 0000.0001) PTRACERS_AdamsBash_Tr = /* apply AB on passive tracer */
(PID.TID 0000.0001)                   F
(PID.TID 0000.0001)     ;
(PID.TID 0000.0001) PTRACERS_diffKh = /* Laplacian Diffusivity */
(PID.TID 0000.0001)                 0.000000000000000E+00
(PID.TID 0000.0001)     ;
(PID.TID 0000.0001) PTRACERS_diffK4 = /* Biharmonic Diffusivity */
(PID.TID 0000.0001)                 0.000000000000000E+00
(PID.TID 0000.0001)     ;
(PID.TID 0000.0001) PTRACERS_diffKrNr = /* Vertical Diffusivity */
(PID.TID 0000.0001)    50 @  1.000000000000000E-05              /* K =  1: 50 */
(PID.TID 0000.0001)     ;
(PID.TID 0000.0001) PTRACERS_useGMRedi = /* apply GM-Redi */
(PID.TID 0000.0001)                   T
(PID.TID 0000.0001)     ;
(PID.TID 0000.0001) PTRACERS_useDWNSLP = /* apply DOWN-SLOPE Flow */
(PID.TID 0000.0001)                   F
(PID.TID 0000.0001)     ;
(PID.TID 0000.0001) PTRACERS_useKPP = /* apply KPP scheme */
(PID.TID 0000.0001)                   F
(PID.TID 0000.0001)     ;
(PID.TID 0000.0001) PTRACERS_ref = /* Reference vertical profile */
(PID.TID 0000.0001)    50 @  0.000000000000000E+00              /* K =  1: 50 */
(PID.TID 0000.0001)     ;
(PID.TID 0000.0001) PTRACERS_EvPrRn =/* tracer conc. in Evap. & Rain */
(PID.TID 0000.0001)                 1.234567000000000E+05
(PID.TID 0000.0001)     ;
(PID.TID 0000.0001)  -----------------------------------
(PID.TID 0000.0001)  tracer number :   38
(PID.TID 0000.0001) PTRACERS_names = /* Tracer short name */
(PID.TID 0000.0001)               'ZOOC1'
(PID.TID 0000.0001)     ;
(PID.TID 0000.0001) PTRACERS_long_names = /* Tracer long name */
(PID.TID 0000.0001)               ''
(PID.TID 0000.0001)     ;
(PID.TID 0000.0001) PTRACERS_ioLabel = /* tracer IO Label */
(PID.TID 0000.0001)               '38'
(PID.TID 0000.0001)     ;
(PID.TID 0000.0001) PTRACERS_advScheme = /* Advection Scheme */
(PID.TID 0000.0001)                      33
(PID.TID 0000.0001)     ;
(PID.TID 0000.0001) PTRACERS_SOM_Advection = /* tracer uses SOM advection scheme */
(PID.TID 0000.0001)                   F
(PID.TID 0000.0001)     ;
(PID.TID 0000.0001) PTRACERS_ImplVertAdv = /* implicit vert. advection flag */
(PID.TID 0000.0001)                   F
(PID.TID 0000.0001)     ;
(PID.TID 0000.0001) PTRACERS_MultiDimAdv = /* tracer uses Multi-Dim advection */
(PID.TID 0000.0001)                   T
(PID.TID 0000.0001)     ;
(PID.TID 0000.0001) PTRACERS_AdamsBashGtr = /* apply AB on tracer tendency */
(PID.TID 0000.0001)                   F
(PID.TID 0000.0001)     ;
(PID.TID 0000.0001) PTRACERS_AdamsBash_Tr = /* apply AB on passive tracer */
(PID.TID 0000.0001)                   F
(PID.TID 0000.0001)     ;
(PID.TID 0000.0001) PTRACERS_diffKh = /* Laplacian Diffusivity */
(PID.TID 0000.0001)                 0.000000000000000E+00
(PID.TID 0000.0001)     ;
(PID.TID 0000.0001) PTRACERS_diffK4 = /* Biharmonic Diffusivity */
(PID.TID 0000.0001)                 0.000000000000000E+00
(PID.TID 0000.0001)     ;
(PID.TID 0000.0001) PTRACERS_diffKrNr = /* Vertical Diffusivity */
(PID.TID 0000.0001)    50 @  1.000000000000000E-05              /* K =  1: 50 */
(PID.TID 0000.0001)     ;
(PID.TID 0000.0001) PTRACERS_useGMRedi = /* apply GM-Redi */
(PID.TID 0000.0001)                   T
(PID.TID 0000.0001)     ;
(PID.TID 0000.0001) PTRACERS_useDWNSLP = /* apply DOWN-SLOPE Flow */
(PID.TID 0000.0001)                   F
(PID.TID 0000.0001)     ;
(PID.TID 0000.0001) PTRACERS_useKPP = /* apply KPP scheme */
(PID.TID 0000.0001)                   F
(PID.TID 0000.0001)     ;
(PID.TID 0000.0001) PTRACERS_ref = /* Reference vertical profile */
(PID.TID 0000.0001)    50 @  0.000000000000000E+00              /* K =  1: 50 */
(PID.TID 0000.0001)     ;
(PID.TID 0000.0001) PTRACERS_EvPrRn =/* tracer conc. in Evap. & Rain */
(PID.TID 0000.0001)                 1.234567000000000E+05
(PID.TID 0000.0001)     ;
(PID.TID 0000.0001)  -----------------------------------
(PID.TID 0000.0001)  tracer number :   39
(PID.TID 0000.0001) PTRACERS_names = /* Tracer short name */
(PID.TID 0000.0001)               'ZOOC2'
(PID.TID 0000.0001)     ;
(PID.TID 0000.0001) PTRACERS_long_names = /* Tracer long name */
(PID.TID 0000.0001)               ''
(PID.TID 0000.0001)     ;
(PID.TID 0000.0001) PTRACERS_ioLabel = /* tracer IO Label */
(PID.TID 0000.0001)               '39'
(PID.TID 0000.0001)     ;
(PID.TID 0000.0001) PTRACERS_advScheme = /* Advection Scheme */
(PID.TID 0000.0001)                      33
(PID.TID 0000.0001)     ;
(PID.TID 0000.0001) PTRACERS_SOM_Advection = /* tracer uses SOM advection scheme */
(PID.TID 0000.0001)                   F
(PID.TID 0000.0001)     ;
(PID.TID 0000.0001) PTRACERS_ImplVertAdv = /* implicit vert. advection flag */
(PID.TID 0000.0001)                   F
(PID.TID 0000.0001)     ;
(PID.TID 0000.0001) PTRACERS_MultiDimAdv = /* tracer uses Multi-Dim advection */
(PID.TID 0000.0001)                   T
(PID.TID 0000.0001)     ;
(PID.TID 0000.0001) PTRACERS_AdamsBashGtr = /* apply AB on tracer tendency */
(PID.TID 0000.0001)                   F
(PID.TID 0000.0001)     ;
(PID.TID 0000.0001) PTRACERS_AdamsBash_Tr = /* apply AB on passive tracer */
(PID.TID 0000.0001)                   F
(PID.TID 0000.0001)     ;
(PID.TID 0000.0001) PTRACERS_diffKh = /* Laplacian Diffusivity */
(PID.TID 0000.0001)                 0.000000000000000E+00
(PID.TID 0000.0001)     ;
(PID.TID 0000.0001) PTRACERS_diffK4 = /* Biharmonic Diffusivity */
(PID.TID 0000.0001)                 0.000000000000000E+00
(PID.TID 0000.0001)     ;
(PID.TID 0000.0001) PTRACERS_diffKrNr = /* Vertical Diffusivity */
(PID.TID 0000.0001)    50 @  1.000000000000000E-05              /* K =  1: 50 */
(PID.TID 0000.0001)     ;
(PID.TID 0000.0001) PTRACERS_useGMRedi = /* apply GM-Redi */
(PID.TID 0000.0001)                   T
(PID.TID 0000.0001)     ;
(PID.TID 0000.0001) PTRACERS_useDWNSLP = /* apply DOWN-SLOPE Flow */
(PID.TID 0000.0001)                   F
(PID.TID 0000.0001)     ;
(PID.TID 0000.0001) PTRACERS_useKPP = /* apply KPP scheme */
(PID.TID 0000.0001)                   F
(PID.TID 0000.0001)     ;
(PID.TID 0000.0001) PTRACERS_ref = /* Reference vertical profile */
(PID.TID 0000.0001)    50 @  0.000000000000000E+00              /* K =  1: 50 */
(PID.TID 0000.0001)     ;
(PID.TID 0000.0001) PTRACERS_EvPrRn =/* tracer conc. in Evap. & Rain */
(PID.TID 0000.0001)                 1.234567000000000E+05
(PID.TID 0000.0001)     ;
(PID.TID 0000.0001)  -----------------------------------
(PID.TID 0000.0001) GCHEM_CHECK: #define ALLOW_GCHEM
(PID.TID 0000.0001) DARWIN_CHECK: #define ALLOW_DARWIN
(PID.TID 0000.0001) DARWIN_CHECK: iPtr darwin   PTRACERS_names
(PID.TID 0000.0001) DARWIN_CHECK:    1 PO4      PO4
(PID.TID 0000.0001) DARWIN_CHECK:    2 NO3      NO3
(PID.TID 0000.0001) DARWIN_CHECK:    3 FeT      FeT
(PID.TID 0000.0001) DARWIN_CHECK:    4 Si       SiO2
(PID.TID 0000.0001) DARWIN_CHECK:    5 DOP      DOP
(PID.TID 0000.0001) DARWIN_CHECK:    6 DON      DON
(PID.TID 0000.0001) DARWIN_CHECK:    7 DOFe     DOFe
(PID.TID 0000.0001) DARWIN_CHECK:    8 ZooP (1) ZOO1P
(PID.TID 0000.0001) DARWIN_CHECK:    9 ZooN (1) ZOO1N
(PID.TID 0000.0001) DARWIN_CHECK:   10 ZooFe(1) ZOO1Fe
(PID.TID 0000.0001) DARWIN_CHECK:   11 ZooSi(1) ZOO1Si
(PID.TID 0000.0001) DARWIN_CHECK:   12 ZooP (2) ZOO2P
(PID.TID 0000.0001) DARWIN_CHECK:   13 ZooN (2) ZOO2N
(PID.TID 0000.0001) DARWIN_CHECK:   14 ZooFe(2) ZOO2Fe
(PID.TID 0000.0001) DARWIN_CHECK:   15 ZooSi(2) ZOO2Si
(PID.TID 0000.0001) DARWIN_CHECK:   16 POP      POP
(PID.TID 0000.0001) DARWIN_CHECK:   17 PON      PON
(PID.TID 0000.0001) DARWIN_CHECK:   18 POFe     POFe
(PID.TID 0000.0001) DARWIN_CHECK:   19 POSi     POSi
(PID.TID 0000.0001) DARWIN_CHECK:   20 NH4      NH4
(PID.TID 0000.0001) DARWIN_CHECK:   21 NO2      NO2
(PID.TID 0000.0001) DARWIN_CHECK:   22 Phy(1)   Phy01
(PID.TID 0000.0001) DARWIN_CHECK:   26 Phy(   5)Phy05
(PID.TID 0000.0001) DARWIN_CHECK:   27 Chl(1)   Chl01
(PID.TID 0000.0001) DARWIN_CHECK:   31 Chl(   5)Chl05
(PID.TID 0000.0001) DARWIN_CHECK:   32 DIC      DIC
(PID.TID 0000.0001) DARWIN_CHECK:   33 DOC      DOC
(PID.TID 0000.0001) DARWIN_CHECK:   34 POC      POC
(PID.TID 0000.0001) DARWIN_CHECK:   35 PIC      PIC
(PID.TID 0000.0001) DARWIN_CHECK:   36 ALK      ALK
(PID.TID 0000.0001) DARWIN_CHECK:   37 iO2      O2
(PID.TID 0000.0001) DARWIN_CHECK:   38 ZooC (1) ZOOC1
(PID.TID 0000.0001) DARWIN_CHECK:   39 ZooC (2) ZOOC2
(PID.TID 0000.0001) SEAICE_CHECK: #define ALLOW_SEAICE
(PID.TID 0000.0001) SALT_PLUME_CHECK: #define SALT_PLUME
(PID.TID 0000.0001) CTRL_CHECK: #define ALLOW_CTRL
(PID.TID 0000.0001) GAD_CHECK: #define ALLOW_GENERIC_ADVDIFF
(PID.TID 0000.0001) // =======================================================
(PID.TID 0000.0001) // Check Model config. (CONFIG_CHECK):
(PID.TID 0000.0001) // CONFIG_CHECK : Normal End
(PID.TID 0000.0001) // =======================================================
(PID.TID 0000.0001) 
(PID.TID 0000.0001)  nRecords = 403 ; filePrec =  64 ; fileIter =     78841
(PID.TID 0000.0001)     nDims =   2 , dims:
(PID.TID 0000.0001)    1: 270   1 270
(PID.TID 0000.0001)    2:3510   13510
(PID.TID 0000.0001)     nFlds =  11 , nFl3D =   8 , fields:
(PID.TID 0000.0001)  >Uvel    < >Vvel    < >Theta   < >Salt    < >GuNm1   < >GuNm2   < >GvNm1   < >GvNm2   < >EtaN    < >dEtaHdt < >EtaH    <
(PID.TID 0000.0001) missingVal=  1.00000000000000E+00 ; nTimRec =   1 , timeList:
(PID.TID 0000.0001)   9.460920000000E+07
(PID.TID 0000.0001) READ_MFLDS_3D_RL: read field: "Uvel    ", #   1 in fldList, rec=   1
(PID.TID 0000.0001) READ_MFLDS_3D_RL: read field: "Vvel    ", #   2 in fldList, rec=   2
(PID.TID 0000.0001) READ_MFLDS_3D_RL: read field: "Theta   ", #   3 in fldList, rec=   3
(PID.TID 0000.0001) READ_MFLDS_3D_RL: read field: "Salt    ", #   4 in fldList, rec=   4
(PID.TID 0000.0001) READ_MFLDS_3D_RL: read field: "GuNm1   ", #   5 in fldList, rec=   5
(PID.TID 0000.0001) READ_MFLDS_3D_RL: read field: "GuNm2   ", #   6 in fldList, rec=   6
(PID.TID 0000.0001) READ_MFLDS_3D_RL: read field: "GvNm1   ", #   7 in fldList, rec=   7
(PID.TID 0000.0001) READ_MFLDS_3D_RL: read field: "GvNm2   ", #   8 in fldList, rec=   8
(PID.TID 0000.0001) READ_MFLDS_3D_RL: read field: "EtaN    ", #   9 in fldList, rec= 401
(PID.TID 0000.0001) READ_MFLDS_3D_RL: read field: "dEtaHdt ", #  10 in fldList, rec= 402
(PID.TID 0000.0001) READ_MFLDS_3D_RL: read field: "EtaH    ", #  11 in fldList, rec= 403
(PID.TID 0000.0001) READ_MFLDS_CHECK: - normal end ; reset MFLDS file-name: pickup.0000000001
(PID.TID 0000.0001)  nRecords =  39 ; filePrec =  64 ; fileIter =     78912
(PID.TID 0000.0001)     nDims =   3 , dims:
(PID.TID 0000.0001)    1: 270   1 270
(PID.TID 0000.0001)    2:3510   13510
(PID.TID 0000.0001)    3:  50   1  50
(PID.TID 0000.0001)     nFlds =  39 , nFl3D =   0 , fields:
(PID.TID 0000.0001)  >pTr01   < >pTr02   < >pTr03   < >pTr04   < >pTr05   < >pTr06   < >pTr07   < >pTr08   < >pTr09   < >pTr10   < >pTr11   < >pTr12   < >pTr13   < >pTr14   < >pTr15   < >pTr16   < >pTr17   < >pTr18   < >pTr19   < >pTr20   <
(PID.TID 0000.0001)  >pTr21   < >pTr22   < >pTr23   < >pTr24   < >pTr25   < >pTr26   < >pTr27   < >pTr28   < >pTr29   < >pTr30   < >pTr31   < >pTr32   < >pTr33   < >pTr34   < >pTr35   < >pTr36   < >pTr37   < >pTr38   < >pTr39   <
(PID.TID 0000.0001) missingVal=  1.00000000000000E+00 ; nTimRec =   1 , timeList:
(PID.TID 0000.0001)   9.469440000000E+07
(PID.TID 0000.0001) READ_MFLDS_3D_RL: read field: "pTr01   ", #   1 in fldList, rec=   1
(PID.TID 0000.0001) READ_MFLDS_3D_RL: read field: "pTr02   ", #   2 in fldList, rec=   2
(PID.TID 0000.0001) READ_MFLDS_3D_RL: read field: "pTr03   ", #   3 in fldList, rec=   3
(PID.TID 0000.0001) READ_MFLDS_3D_RL: read field: "pTr04   ", #   4 in fldList, rec=   4
(PID.TID 0000.0001) READ_MFLDS_3D_RL: read field: "pTr05   ", #   5 in fldList, rec=   5
(PID.TID 0000.0001) READ_MFLDS_3D_RL: read field: "pTr06   ", #   6 in fldList, rec=   6
(PID.TID 0000.0001) READ_MFLDS_3D_RL: read field: "pTr07   ", #   7 in fldList, rec=   7
(PID.TID 0000.0001) READ_MFLDS_3D_RL: read field: "pTr08   ", #   8 in fldList, rec=   8
(PID.TID 0000.0001) READ_MFLDS_3D_RL: read field: "pTr09   ", #   9 in fldList, rec=   9
(PID.TID 0000.0001) READ_MFLDS_3D_RL: read field: "pTr10   ", #  10 in fldList, rec=  10
(PID.TID 0000.0001) READ_MFLDS_3D_RL: read field: "pTr11   ", #  11 in fldList, rec=  11
(PID.TID 0000.0001) READ_MFLDS_3D_RL: read field: "pTr12   ", #  12 in fldList, rec=  12
(PID.TID 0000.0001) READ_MFLDS_3D_RL: read field: "pTr13   ", #  13 in fldList, rec=  13
(PID.TID 0000.0001) READ_MFLDS_3D_RL: read field: "pTr14   ", #  14 in fldList, rec=  14
(PID.TID 0000.0001) READ_MFLDS_3D_RL: read field: "pTr15   ", #  15 in fldList, rec=  15
(PID.TID 0000.0001) READ_MFLDS_3D_RL: read field: "pTr16   ", #  16 in fldList, rec=  16
(PID.TID 0000.0001) READ_MFLDS_3D_RL: read field: "pTr17   ", #  17 in fldList, rec=  17
(PID.TID 0000.0001) READ_MFLDS_3D_RL: read field: "pTr18   ", #  18 in fldList, rec=  18
(PID.TID 0000.0001) READ_MFLDS_3D_RL: read field: "pTr19   ", #  19 in fldList, rec=  19
(PID.TID 0000.0001) READ_MFLDS_3D_RL: read field: "pTr20   ", #  20 in fldList, rec=  20
(PID.TID 0000.0001) READ_MFLDS_3D_RL: read field: "pTr21   ", #  21 in fldList, rec=  21
(PID.TID 0000.0001) READ_MFLDS_3D_RL: read field: "pTr22   ", #  22 in fldList, rec=  22
(PID.TID 0000.0001) READ_MFLDS_3D_RL: read field: "pTr23   ", #  23 in fldList, rec=  23
(PID.TID 0000.0001) READ_MFLDS_3D_RL: read field: "pTr24   ", #  24 in fldList, rec=  24
(PID.TID 0000.0001) READ_MFLDS_3D_RL: read field: "pTr25   ", #  25 in fldList, rec=  25
(PID.TID 0000.0001) READ_MFLDS_3D_RL: read field: "pTr26   ", #  26 in fldList, rec=  26
(PID.TID 0000.0001) READ_MFLDS_3D_RL: read field: "pTr27   ", #  27 in fldList, rec=  27
(PID.TID 0000.0001) READ_MFLDS_3D_RL: read field: "pTr28   ", #  28 in fldList, rec=  28
(PID.TID 0000.0001) READ_MFLDS_3D_RL: read field: "pTr29   ", #  29 in fldList, rec=  29
(PID.TID 0000.0001) READ_MFLDS_3D_RL: read field: "pTr30   ", #  30 in fldList, rec=  30
(PID.TID 0000.0001) READ_MFLDS_3D_RL: read field: "pTr31   ", #  31 in fldList, rec=  31
(PID.TID 0000.0001) READ_MFLDS_3D_RL: read field: "pTr32   ", #  32 in fldList, rec=  32
(PID.TID 0000.0001) READ_MFLDS_3D_RL: read field: "pTr33   ", #  33 in fldList, rec=  33
(PID.TID 0000.0001) READ_MFLDS_3D_RL: read field: "pTr34   ", #  34 in fldList, rec=  34
(PID.TID 0000.0001) READ_MFLDS_3D_RL: read field: "pTr35   ", #  35 in fldList, rec=  35
(PID.TID 0000.0001) READ_MFLDS_3D_RL: read field: "pTr36   ", #  36 in fldList, rec=  36
(PID.TID 0000.0001) READ_MFLDS_3D_RL: read field: "pTr37   ", #  37 in fldList, rec=  37
(PID.TID 0000.0001) READ_MFLDS_3D_RL: read field: "pTr38   ", #  38 in fldList, rec=  38
(PID.TID 0000.0001) READ_MFLDS_3D_RL: read field: "pTr39   ", #  39 in fldList, rec=  39
(PID.TID 0000.0001) READ_MFLDS_CHECK: - normal end ; reset MFLDS file-name: pickup_ptracers.0000000001
(PID.TID 0000.0001) // =======================================================
(PID.TID 0000.0001) // Darwin init variables >>> START <<<
(PID.TID 0000.0001) // =======================================================
(PID.TID 0000.0001) QQ random port_rand               56   0.3052905000000000
(PID.TID 0000.0001) generate Phyto: np =    1 FIXED - no DIAZO
(PID.TID 0000.0001) generate Phyto: np =    1 Topt       =   0.00000000000000
(PID.TID 0000.0001) generate Phyto: np =    1 growthdays =  0.422600000000000
(PID.TID 0000.0001) generate Phyto: np =    1 pcmax    =  2.738777584967836E-005
(PID.TID 0000.0001) generate Phyto: np =    1 mQyield    =  3.000000000000000E-005
(PID.TID 0000.0001) generate Phyto: np =    1 chl2cmax     =  0.500000000000000
(PID.TID 0000.0001) generate Phyto: np =    2 FIXED - no DIAZO
(PID.TID 0000.0001) generate Phyto: np =    2 Topt       =   0.00000000000000
(PID.TID 0000.0001) generate Phyto: np =    2 growthdays =  0.422600000000000
(PID.TID 0000.0001) generate Phyto: np =    2 pcmax    =  2.738777584967836E-005
(PID.TID 0000.0001) generate Phyto: np =    2 mQyield    =  3.000000000000000E-005
(PID.TID 0000.0001) generate Phyto: np =    2 chl2cmax     =  0.500000000000000
(PID.TID 0000.0001) generate Phyto: np =    3 FIXED - no DIAZO
(PID.TID 0000.0001) generate Phyto: np =    3 Topt       =   0.00000000000000
(PID.TID 0000.0001) generate Phyto: np =    3 growthdays =  0.691800000000000
(PID.TID 0000.0001) generate Phyto: np =    3 pcmax    =  1.673037593823948E-005
(PID.TID 0000.0001) generate Phyto: np =    3 mQyield    =  5.000000000000000E-005
(PID.TID 0000.0001) generate Phyto: np =    3 chl2cmax     =  0.200000000000000
(PID.TID 0000.0001) generate Phyto: np =    4 FIXED - no DIAZO
(PID.TID 0000.0001) generate Phyto: np =    4 Topt       =   0.00000000000000
(PID.TID 0000.0001) generate Phyto: np =    4 growthdays =  0.691800000000000
(PID.TID 0000.0001) generate Phyto: np =    4 pcmax    =  1.673037593823948E-005
(PID.TID 0000.0001) generate Phyto: np =    4 mQyield    =  5.000000000000000E-005
(PID.TID 0000.0001) generate Phyto: np =    4 chl2cmax     =  0.200000000000000
(PID.TID 0000.0001) generate Phyto: np =    5 FIXED - no DIAZO
(PID.TID 0000.0001) generate Phyto: np =    5 Topt       =   0.00000000000000
(PID.TID 0000.0001) generate Phyto: np =    5 growthdays =  0.691800000000000
(PID.TID 0000.0001) generate Phyto: np =    5 pcmax    =  1.673037593823948E-005
(PID.TID 0000.0001) generate Phyto: np =    5 mQyield    =  5.000000000000000E-005
(PID.TID 0000.0001) generate Phyto: np =    5 chl2cmax     =  0.200000000000000
(PID.TID 0000.0001) // =======================================================
(PID.TID 0000.0001) // Darwin check Chl >>> START <<<
(PID.TID 0000.0001) // =======================================================
(PID.TID 0000.0001) // =======================================================
(PID.TID 0000.0001) // Darwin check chl >>> END <<<
(PID.TID 0000.0001) // =======================================================
(PID.TID 0000.0001) // =======================================================
(PID.TID 0000.0001) // Darwin init variables >>> END <<<
(PID.TID 0000.0001) // =======================================================
(PID.TID 0000.0001) // =======================================================
(PID.TID 0000.0001) // Begin MONITOR EXF statistics
(PID.TID 0000.0001) // =======================================================
(PID.TID 0000.0001) %MON exf_tsnumber                 =                     0
(PID.TID 0000.0001) %MON exf_time_sec                 =   0.0000000000000E+00
(PID.TID 0000.0001) %MON exf_ustress_max              =   2.5391743055064E+00
(PID.TID 0000.0001) %MON exf_ustress_min              =  -1.2467540550936E+00
(PID.TID 0000.0001) %MON exf_ustress_mean             =   1.1789508501767E-02
(PID.TID 0000.0001) %MON exf_ustress_sd               =   1.1280565572120E-01
(PID.TID 0000.0001) %MON exf_ustress_del2             =   7.3312198886732E-06
(PID.TID 0000.0001) %MON exf_vstress_max              =   2.8145553450201E+00
(PID.TID 0000.0001) %MON exf_vstress_min              =  -1.8166290194980E+00
(PID.TID 0000.0001) %MON exf_vstress_mean             =   3.4635591744175E-03
(PID.TID 0000.0001) %MON exf_vstress_sd               =   1.0626918189038E-01
(PID.TID 0000.0001) %MON exf_vstress_del2             =   6.9738786620277E-06
(PID.TID 0000.0001) %MON exf_hflux_max                =   1.1231761559662E+03
(PID.TID 0000.0001) %MON exf_hflux_min                =  -5.8004407287828E+02
(PID.TID 0000.0001) %MON exf_hflux_mean               =  -1.0767442867987E+01
(PID.TID 0000.0001) %MON exf_hflux_sd                 =   2.2812634689996E+02
(PID.TID 0000.0001) %MON exf_hflux_del2               =   1.3118446967820E-01
(PID.TID 0000.0001) %MON exf_sflux_max                =   2.5739605900988E-07
(PID.TID 0000.0001) %MON exf_sflux_min                =  -2.1292300868324E-06
(PID.TID 0000.0001) %MON exf_sflux_mean               =   5.5757857820071E-09
(PID.TID 0000.0001) %MON exf_sflux_sd                 =   8.0805524316808E-08
(PID.TID 0000.0001) %MON exf_sflux_del2               =   3.9794208981615E-11
(PID.TID 0000.0001) %MON exf_uwind_max                =   2.7985081230171E+01
(PID.TID 0000.0001) %MON exf_uwind_min                =  -2.2323143790525E+01
(PID.TID 0000.0001) %MON exf_uwind_mean               =   2.4646418180548E-01
(PID.TID 0000.0001) %MON exf_uwind_sd                 =   5.4904413148999E+00
(PID.TID 0000.0001) %MON exf_uwind_del2               =   2.9524464880227E-03
(PID.TID 0000.0001) %MON exf_vwind_max                =   3.0206459393586E+01
(PID.TID 0000.0001) %MON exf_vwind_min                =  -2.0634836735502E+01
(PID.TID 0000.0001) %MON exf_vwind_mean               =  -3.8693270886724E-01
(PID.TID 0000.0001) %MON exf_vwind_sd                 =   5.6234143034677E+00
(PID.TID 0000.0001) %MON exf_vwind_del2               =   2.8683556706331E-03
(PID.TID 0000.0001) %MON exf_wspeed_max               =   3.0699944385342E+01
(PID.TID 0000.0001) %MON exf_wspeed_min               =   1.3469464364999E-02
(PID.TID 0000.0001) %MON exf_wspeed_mean              =   7.1264313991109E+00
(PID.TID 0000.0001) %MON exf_wspeed_sd                =   3.3454702642042E+00
(PID.TID 0000.0001) %MON exf_wspeed_del2              =   4.1090519887477E-03
(PID.TID 0000.0001) %MON exf_atemp_max                =   3.0464103556601E+02
(PID.TID 0000.0001) %MON exf_atemp_min                =   2.2922662121142E+02
(PID.TID 0000.0001) %MON exf_atemp_mean               =   2.8931354745098E+02
(PID.TID 0000.0001) %MON exf_atemp_sd                 =   1.2286175520942E+01
(PID.TID 0000.0001) %MON exf_atemp_del2               =   8.6233204135031E-03
(PID.TID 0000.0001) %MON exf_aqh_max                  =   2.2523191541787E-02
(PID.TID 0000.0001) %MON exf_aqh_min                  =   8.2866587234292E-05
(PID.TID 0000.0001) %MON exf_aqh_mean                 =   1.1080303164116E-02
(PID.TID 0000.0001) %MON exf_aqh_sd                   =   5.7481778136646E-03
(PID.TID 0000.0001) %MON exf_aqh_del2                 =   4.8217341845754E-06
(PID.TID 0000.0001) %MON exf_lwflux_max               =   2.0978732167392E+02
(PID.TID 0000.0001) %MON exf_lwflux_min               =  -1.5944337848224E+01
(PID.TID 0000.0001) %MON exf_lwflux_mean              =   5.2390313492450E+01
(PID.TID 0000.0001) %MON exf_lwflux_sd                =   2.8750032925502E+01
(PID.TID 0000.0001) %MON exf_lwflux_del2              =   3.3275431333884E-02
(PID.TID 0000.0001) %MON exf_evap_max                 =   2.6423599077532E-07
(PID.TID 0000.0001) %MON exf_evap_min                 =  -2.4205460166795E-08
(PID.TID 0000.0001) %MON exf_evap_mean                =   4.4806740417806E-08
(PID.TID 0000.0001) %MON exf_evap_sd                  =   3.0129275564502E-08
(PID.TID 0000.0001) %MON exf_evap_del2                =   2.3078305388618E-11
(PID.TID 0000.0001) %MON exf_precip_max               =   1.3717585067063E-06
(PID.TID 0000.0001) %MON exf_precip_min               =  -8.1966513361948E-10
(PID.TID 0000.0001) %MON exf_precip_mean              =   3.6186727791671E-08
(PID.TID 0000.0001) %MON exf_precip_sd                =   6.9248734554704E-08
(PID.TID 0000.0001) %MON exf_precip_del2              =   3.6976811689433E-11
(PID.TID 0000.0001) %MON exf_swflux_max               =   2.1215700943492E-02
(PID.TID 0000.0001) %MON exf_swflux_min               =  -6.7881063185084E+02
(PID.TID 0000.0001) %MON exf_swflux_mean              =  -2.0361575288943E+02
(PID.TID 0000.0001) %MON exf_swflux_sd                =   1.7294106840520E+02
(PID.TID 0000.0001) %MON exf_swflux_del2              =   1.2257252881894E-01
(PID.TID 0000.0001) %MON exf_swdown_max               =   7.3212853672779E+02
(PID.TID 0000.0001) %MON exf_swdown_min               =  -2.3644639764042E-02
(PID.TID 0000.0001) %MON exf_swdown_mean              =   2.2077774288211E+02
(PID.TID 0000.0001) %MON exf_swdown_sd                =   1.8679179145131E+02
(PID.TID 0000.0001) %MON exf_swdown_del2              =   1.3309951236834E-01
(PID.TID 0000.0001) %MON exf_lwdown_max               =   4.5663099481978E+02
(PID.TID 0000.0001) %MON exf_lwdown_min               =   9.0729768381337E+01
(PID.TID 0000.0001) %MON exf_lwdown_mean              =   3.5940416159985E+02
(PID.TID 0000.0001) %MON exf_lwdown_sd                =   6.4735350305864E+01
(PID.TID 0000.0001) %MON exf_lwdown_del2              =   1.6230718428787E-01
(PID.TID 0000.0001) %MON exf_runoff_max               =   2.1958406932754E-06
(PID.TID 0000.0001) %MON exf_runoff_min               =   0.0000000000000E+00
(PID.TID 0000.0001) %MON exf_runoff_mean              =   3.0442268441279E-09
(PID.TID 0000.0001) %MON exf_runoff_sd                =   2.3383316759017E-08
(PID.TID 0000.0001) %MON exf_runoff_del2              =   1.4539653515819E-11
(PID.TID 0000.0001) %MON exf_apco2_max                =   3.6150751161973E-04
(PID.TID 0000.0001) %MON exf_apco2_min                =   3.5358238992411E-04
(PID.TID 0000.0001) %MON exf_apco2_mean               =   3.5574431114538E-04
(PID.TID 0000.0001) %MON exf_apco2_sd                 =   2.0994509523250E-06
(PID.TID 0000.0001) %MON exf_apco2_del2               =   1.7447573554565E-07
(PID.TID 0000.0001) // =======================================================
(PID.TID 0000.0001) // End MONITOR EXF statistics
(PID.TID 0000.0001) // =======================================================
(PID.TID 0000.0001)  nRecords =   6 ; filePrec =  64 ; fileIter =     78841
(PID.TID 0000.0001)     nDims =   2 , dims:
(PID.TID 0000.0001)    1: 270   1 270
(PID.TID 0000.0001)    2:3510   13510
(PID.TID 0000.0001)     nFlds =   6 , nFl3D =   0 , fields:
(PID.TID 0000.0001)  >siTICE  < >siAREA  < >siHEFF  < >siHSNOW < >siUICE  < >siVICE  <
(PID.TID 0000.0001) missingVal=  1.00000000000000E+00 ; nTimRec =   1 , timeList:
(PID.TID 0000.0001)   9.460920000000E+07
(PID.TID 0000.0001) READ_MFLDS_LEV_RL: read field: "siTICE  ", #   1 in fldList, rec=   1
(PID.TID 0000.0001) READ_MFLDS_3D_RL: read field: "siAREA  ", #   2 in fldList, rec=   2
(PID.TID 0000.0001) READ_MFLDS_3D_RL: read field: "siHEFF  ", #   3 in fldList, rec=   3
(PID.TID 0000.0001) READ_MFLDS_3D_RL: read field: "siHSNOW ", #   4 in fldList, rec=   4
(PID.TID 0000.0001) READ_MFLDS_3D_RL: read field: "siUICE  ", #   5 in fldList, rec=   5
(PID.TID 0000.0001) READ_MFLDS_3D_RL: read field: "siVICE  ", #   6 in fldList, rec=   6
(PID.TID 0000.0001) READ_MFLDS_CHECK: - normal end ; reset MFLDS file-name: pickup_seaice.0000000001
(PID.TID 0000.0001) // =======================================================
(PID.TID 0000.0001) // Model current state
(PID.TID 0000.0001) // =======================================================
(PID.TID 0000.0001) 
(PID.TID 0000.0001) // =======================================================
(PID.TID 0000.0001) // Begin MONITOR dynamic field statistics
(PID.TID 0000.0001) // =======================================================
(PID.TID 0000.0001) %MON time_tsnumber                =                     1
(PID.TID 0000.0001) %MON time_secondsf                =   1.2000000000000E+03
(PID.TID 0000.0001) %MON dynstat_eta_max              =   1.1661350831031E+00
(PID.TID 0000.0001) %MON dynstat_eta_min              =  -5.5823155493008E+00
(PID.TID 0000.0001) %MON dynstat_eta_mean             =   4.4837748508064E-02
(PID.TID 0000.0001) %MON dynstat_eta_sd               =   7.9650937818365E-01
(PID.TID 0000.0001) %MON dynstat_eta_del2             =   3.5061506196434E-05
(PID.TID 0000.0001) %MON dynstat_uvel_max             =   1.4444922035892E+00
(PID.TID 0000.0001) %MON dynstat_uvel_min             =  -9.5929449175519E-01
(PID.TID 0000.0001) %MON dynstat_uvel_mean            =   1.1657505283762E-03
(PID.TID 0000.0001) %MON dynstat_uvel_sd              =   2.4393285348829E-02
(PID.TID 0000.0001) %MON dynstat_uvel_del2            =   3.0227542225565E-06
(PID.TID 0000.0001) %MON dynstat_vvel_max             =   1.4406965998420E+00
(PID.TID 0000.0001) %MON dynstat_vvel_min             =  -1.4702695201470E+00
(PID.TID 0000.0001) %MON dynstat_vvel_mean            =   1.0165242790772E-03
(PID.TID 0000.0001) %MON dynstat_vvel_sd              =   2.7006639851066E-02
(PID.TID 0000.0001) %MON dynstat_vvel_del2            =   3.0057223144591E-06
(PID.TID 0000.0001) %MON dynstat_wvel_max             =   3.5269674742302E-03
(PID.TID 0000.0001) %MON dynstat_wvel_min             =  -6.3758353236678E-03
(PID.TID 0000.0001) %MON dynstat_wvel_mean            =  -4.0429822606725E-09
(PID.TID 0000.0001) %MON dynstat_wvel_sd              =   6.8824784028238E-05
(PID.TID 0000.0001) %MON dynstat_wvel_del2            =   1.5933562469119E-08
(PID.TID 0000.0001) %MON dynstat_theta_max            =   3.3002028048607E+01
(PID.TID 0000.0001) %MON dynstat_theta_min            =  -2.0000000000000E+00
(PID.TID 0000.0001) %MON dynstat_theta_mean           =   3.5847735512396E+00
(PID.TID 0000.0001) %MON dynstat_theta_sd             =   4.4307750186864E+00
(PID.TID 0000.0001) %MON dynstat_theta_del2           =   1.5750090886111E-05
(PID.TID 0000.0001) %MON dynstat_salt_max             =   4.1000000000000E+01
(PID.TID 0000.0001) %MON dynstat_salt_min             =   2.9000000000000E+01
(PID.TID 0000.0001) %MON dynstat_salt_mean            =   3.4727079167171E+01
(PID.TID 0000.0001) %MON dynstat_salt_sd              =   3.8902348577321E-01
(PID.TID 0000.0001) %MON dynstat_salt_del2            =   4.6737678387653E-06
(PID.TID 0000.0001) %MON dynstat_sst_max              =   3.3002028048607E+01
(PID.TID 0000.0001) %MON dynstat_sst_min              =  -1.9620687656156E+00
(PID.TID 0000.0001) %MON dynstat_sst_mean             =   1.8546109752330E+01
(PID.TID 0000.0001) %MON dynstat_sst_sd               =   1.0127916661902E+01
(PID.TID 0000.0001) %MON dynstat_sst_del2             =   1.6655716131818E-04
(PID.TID 0000.0001) %MON dynstat_sss_max              =   4.1000000000000E+01
(PID.TID 0000.0001) %MON dynstat_sss_min              =   2.9000000000000E+01
(PID.TID 0000.0001) %MON dynstat_sss_mean             =   3.4555330832759E+01
(PID.TID 0000.0001) %MON dynstat_sss_sd               =   1.3641948609835E+00
(PID.TID 0000.0001) %MON dynstat_sss_del2             =   7.8444286811600E-05
(PID.TID 0000.0001) %MON forcing_qnet_max             =   1.1231761559662E+03
(PID.TID 0000.0001) %MON forcing_qnet_min             =  -5.8004407287828E+02
(PID.TID 0000.0001) %MON forcing_qnet_mean            =  -1.0767442867987E+01
(PID.TID 0000.0001) %MON forcing_qnet_sd              =   2.2812634689996E+02
(PID.TID 0000.0001) %MON forcing_qnet_del2            =   9.7233801526489E-03
(PID.TID 0000.0001) %MON forcing_qsw_max              =   2.1215700943492E-02
(PID.TID 0000.0001) %MON forcing_qsw_min              =  -6.7881063185084E+02
(PID.TID 0000.0001) %MON forcing_qsw_mean             =  -2.0361575288943E+02
(PID.TID 0000.0001) %MON forcing_qsw_sd               =   1.7294106840520E+02
(PID.TID 0000.0001) %MON forcing_qsw_del2             =   3.4228719805321E-03
(PID.TID 0000.0001) %MON forcing_empmr_max            =   2.5739605900988E-04
(PID.TID 0000.0001) %MON forcing_empmr_min            =  -2.1292300868324E-03
(PID.TID 0000.0001) %MON forcing_empmr_mean           =   5.5757857820071E-06
(PID.TID 0000.0001) %MON forcing_empmr_sd             =   8.0805524316808E-05
(PID.TID 0000.0001) %MON forcing_empmr_del2           =   1.5603234745067E-08
(PID.TID 0000.0001) %MON forcing_fu_max               =   2.0000000000000E+00
(PID.TID 0000.0001) %MON forcing_fu_min               =  -1.2460708070412E+00
(PID.TID 0000.0001) %MON forcing_fu_mean              =   1.1789849753110E-02
(PID.TID 0000.0001) %MON forcing_fu_sd                =   1.1252250314614E-01
(PID.TID 0000.0001) %MON forcing_fu_del2              =   7.0420303832021E-06
(PID.TID 0000.0001) %MON forcing_fv_max               =   2.0000000000000E+00
(PID.TID 0000.0001) %MON forcing_fv_min               =  -1.8058872876548E+00
(PID.TID 0000.0001) %MON forcing_fv_mean              =   3.4483519705789E-03
(PID.TID 0000.0001) %MON forcing_fv_sd                =   1.0589256174488E-01
(PID.TID 0000.0001) %MON forcing_fv_del2              =   6.3587523221636E-06
(PID.TID 0000.0001) %MON trAdv_CFL_u_max              =   0.0000000000000E+00
(PID.TID 0000.0001) %MON trAdv_CFL_v_max              =   0.0000000000000E+00
(PID.TID 0000.0001) %MON trAdv_CFL_w_max              =   0.0000000000000E+00
(PID.TID 0000.0001) %MON advcfl_uvel_max              =   9.7650734353090E-02
(PID.TID 0000.0001) %MON advcfl_vvel_max              =   5.8787316857911E-02
(PID.TID 0000.0001) %MON advcfl_wvel_max              =   2.7610656932193E-01
(PID.TID 0000.0001) %MON advcfl_W_hf_max              =   2.8415490733095E-01
(PID.TID 0000.0001) %MON pe_b_mean                    =   8.3960135270064E-04
(PID.TID 0000.0001) %MON ke_max                       =   1.0429434918392E+00
(PID.TID 0000.0001) %MON ke_mean                      =   6.4763382796616E-04
(PID.TID 0000.0001) %MON ke_vol                       =   1.3346996901509E+18
(PID.TID 0000.0001) %MON vort_r_min                   =  -1.0471959174048E-04
(PID.TID 0000.0001) %MON vort_r_max                   =   8.2186613080263E-05
(PID.TID 0000.0001) %MON vort_a_mean                  =  -1.9771265317094E-05
(PID.TID 0000.0001) %MON vort_a_sd                    =   7.4554639590069E-05
(PID.TID 0000.0001) %MON vort_p_mean                  =  -2.1179977977636E-05
(PID.TID 0000.0001) %MON vort_p_sd                    =   8.8323297307883E-05
(PID.TID 0000.0001) %MON surfExpan_theta_mean         =  -7.8023567635487E-08
(PID.TID 0000.0001) %MON surfExpan_salt_mean          =   2.1883430284761E-08
(PID.TID 0000.0001) // =======================================================
(PID.TID 0000.0001) // End MONITOR dynamic field statistics
(PID.TID 0000.0001) // =======================================================
(PID.TID 0000.0001) // =======================================================
(PID.TID 0000.0001) // Begin MONITOR SEAICE statistics
(PID.TID 0000.0001) // =======================================================
(PID.TID 0000.0001) %MON seaice_tsnumber              =                     1
(PID.TID 0000.0001) %MON seaice_time_sec              =   1.2000000000000E+03
(PID.TID 0000.0001) %MON seaice_uice_max              =   4.0000000000000E-01
(PID.TID 0000.0001) %MON seaice_uice_min              =  -4.0000000000000E-01
(PID.TID 0000.0001) %MON seaice_uice_mean             =   3.1953521790001E-04
(PID.TID 0000.0001) %MON seaice_uice_sd               =   1.8176131324196E-01
(PID.TID 0000.0001) %MON seaice_uice_del2             =   3.2106509701997E-05
(PID.TID 0000.0001) %MON seaice_vice_max              =   4.0000000000000E-01
(PID.TID 0000.0001) %MON seaice_vice_min              =  -4.0000000000000E-01
(PID.TID 0000.0001) %MON seaice_vice_mean             =  -1.6124490877255E-03
(PID.TID 0000.0001) %MON seaice_vice_sd               =   1.8191578999848E-01
(PID.TID 0000.0001) %MON seaice_vice_del2             =   3.2965323889109E-05
(PID.TID 0000.0001) %MON seaice_area_max              =   9.5000000000000E-01
(PID.TID 0000.0001) %MON seaice_area_min              =   0.0000000000000E+00
(PID.TID 0000.0001) %MON seaice_area_mean             =   4.7757191559414E-02
(PID.TID 0000.0001) %MON seaice_area_sd               =   1.9563494094997E-01
(PID.TID 0000.0001) %MON seaice_area_del2             =   4.2392883557427E-05
(PID.TID 0000.0001) %MON seaice_heff_max              =   5.7657312798250E+00
(PID.TID 0000.0001) %MON seaice_heff_min              =   0.0000000000000E+00
(PID.TID 0000.0001) %MON seaice_heff_mean             =   8.3074357410634E-02
(PID.TID 0000.0001) %MON seaice_heff_sd               =   4.3470225856109E-01
(PID.TID 0000.0001) %MON seaice_heff_del2             =   3.7488965971619E-05
(PID.TID 0000.0001) %MON seaice_hsnow_max             =   8.5204238614643E-01
(PID.TID 0000.0001) %MON seaice_hsnow_min             =  -1.0842021724855E-19
(PID.TID 0000.0001) %MON seaice_hsnow_mean            =   5.2329157913615E-03
(PID.TID 0000.0001) %MON seaice_hsnow_sd              =   2.9415589195127E-02
(PID.TID 0000.0001) %MON seaice_hsnow_del2            =   4.6990390972324E-06
(PID.TID 0000.0001) // =======================================================
(PID.TID 0000.0001) // End MONITOR SEAICE statistics
(PID.TID 0000.0001) // =======================================================
(PID.TID 0000.0001) // =======================================================
(PID.TID 0000.0001) // Begin MONITOR ptracer field statistics
(PID.TID 0000.0001) // =======================================================
(PID.TID 0000.0001) %MON trcstat_ptracer01_max        =   4.0392237409755E+00
(PID.TID 0000.0001) %MON trcstat_ptracer01_min        =  -9.3728606360288E-01
(PID.TID 0000.0001) %MON trcstat_ptracer01_mean       =   2.2269002849405E+00
(PID.TID 0000.0001) %MON trcstat_ptracer01_sd         =   6.6884694417935E-01
(PID.TID 0000.0001) %MON trcstat_ptracer01_del2       =   1.2526953705998E-05
(PID.TID 0000.0001) %MON trcstat_ptracer02_max        =   5.7761423776162E+01
(PID.TID 0000.0001) %MON trcstat_ptracer02_min        =  -7.0446270420560E+00
(PID.TID 0000.0001) %MON trcstat_ptracer02_mean       =   3.1702735912926E+01
(PID.TID 0000.0001) %MON trcstat_ptracer02_sd         =   9.3877033163471E+00
(PID.TID 0000.0001) %MON trcstat_ptracer02_del2       =   1.8506479689415E-04
(PID.TID 0000.0001) %MON trcstat_ptracer03_max        =   1.2837447032248E-03
(PID.TID 0000.0001) %MON trcstat_ptracer03_min        =  -1.4466898994355E-04
(PID.TID 0000.0001) %MON trcstat_ptracer03_mean       =   5.5047812384916E-04
(PID.TID 0000.0001) %MON trcstat_ptracer03_sd         =   1.2611700839618E-04
(PID.TID 0000.0001) %MON trcstat_ptracer03_del2       =   4.4034215242902E-09
(PID.TID 0000.0001) %MON trcstat_ptracer04_max        =   2.5508233823167E+02
(PID.TID 0000.0001) %MON trcstat_ptracer04_min        =  -3.6633264991160E+01
(PID.TID 0000.0001) %MON trcstat_ptracer04_mean       =   9.0903069208518E+01
(PID.TID 0000.0001) %MON trcstat_ptracer04_sd         =   5.3321158878439E+01
(PID.TID 0000.0001) %MON trcstat_ptracer04_del2       =   5.3045678725170E-04
(PID.TID 0000.0001) %MON trcstat_ptracer05_max        =   6.0382705138683E-01
(PID.TID 0000.0001) %MON trcstat_ptracer05_min        =  -5.5187295856598E-02
(PID.TID 0000.0001) %MON trcstat_ptracer05_mean       =   3.0289317667843E-03
(PID.TID 0000.0001) %MON trcstat_ptracer05_sd         =   1.9530662474936E-02
(PID.TID 0000.0001) %MON trcstat_ptracer05_del2       =   1.0132733739605E-06
(PID.TID 0000.0001) %MON trcstat_ptracer06_max        =   9.6612328221892E+00
(PID.TID 0000.0001) %MON trcstat_ptracer06_min        =  -8.8299673370881E-01
(PID.TID 0000.0001) %MON trcstat_ptracer06_mean       =   4.8462908268548E-02
(PID.TID 0000.0001) %MON trcstat_ptracer06_sd         =   3.1249059959896E-01
(PID.TID 0000.0001) %MON trcstat_ptracer06_del2       =   1.6212373983367E-05
(PID.TID 0000.0001) %MON trcstat_ptracer07_max        =   6.0382705138683E-04
(PID.TID 0000.0001) %MON trcstat_ptracer07_min        =  -5.5187295856833E-05
(PID.TID 0000.0001) %MON trcstat_ptracer07_mean       =   3.0289317667845E-06
(PID.TID 0000.0001) %MON trcstat_ptracer07_sd         =   1.9530662474937E-05
(PID.TID 0000.0001) %MON trcstat_ptracer07_del2       =   1.0132733739602E-09
(PID.TID 0000.0001) %MON trcstat_ptracer08_max        =   5.6879144059294E-02
(PID.TID 0000.0001) %MON trcstat_ptracer08_min        =  -1.1393217667825E-02
(PID.TID 0000.0001) %MON trcstat_ptracer08_mean       =   3.4737448849934E-05
(PID.TID 0000.0001) %MON trcstat_ptracer08_sd         =   5.3542607114965E-04
(PID.TID 0000.0001) %MON trcstat_ptracer08_del2       =   4.2945631939880E-08
(PID.TID 0000.0001) %MON trcstat_ptracer09_max        =   9.1006630494868E-01
(PID.TID 0000.0001) %MON trcstat_ptracer09_min        =  -1.8229148268521E-01
(PID.TID 0000.0001) %MON trcstat_ptracer09_mean       =   5.5579918160039E-04
(PID.TID 0000.0001) %MON trcstat_ptracer09_sd         =   8.5668171383839E-03
(PID.TID 0000.0001) %MON trcstat_ptracer09_del2       =   6.8713011109655E-07
(PID.TID 0000.0001) %MON trcstat_ptracer10_max        =   5.6879144059324E-05
(PID.TID 0000.0001) %MON trcstat_ptracer10_min        =  -1.1393217667825E-05
(PID.TID 0000.0001) %MON trcstat_ptracer10_mean       =   3.4737448850063E-08
(PID.TID 0000.0001) %MON trcstat_ptracer10_sd         =   5.3542607114933E-07
(PID.TID 0000.0001) %MON trcstat_ptracer10_del2       =   4.2945631939179E-11
(PID.TID 0000.0001) %MON trcstat_ptracer11_max        =   3.0991874439096E-02
(PID.TID 0000.0001) %MON trcstat_ptracer11_min        =  -3.1792930050354E-03
(PID.TID 0000.0001) %MON trcstat_ptracer11_mean       =   6.4705357301708E-06
(PID.TID 0000.0001) %MON trcstat_ptracer11_sd         =   1.4289851916231E-04
(PID.TID 0000.0001) %MON trcstat_ptracer11_del2       =   1.6613798986918E-08
(PID.TID 0000.0001) %MON trcstat_ptracer12_max        =   2.2336464738870E-01
(PID.TID 0000.0001) %MON trcstat_ptracer12_min        =  -3.9456872297368E-02
(PID.TID 0000.0001) %MON trcstat_ptracer12_mean       =   7.4366755261369E-05
(PID.TID 0000.0001) %MON trcstat_ptracer12_sd         =   1.3226331849176E-03
(PID.TID 0000.0001) %MON trcstat_ptracer12_del2       =   1.4876935060856E-07
(PID.TID 0000.0001) %MON trcstat_ptracer13_max        =   3.5738343582192E+00
(PID.TID 0000.0001) %MON trcstat_ptracer13_min        =  -6.3130995675788E-01
(PID.TID 0000.0001) %MON trcstat_ptracer13_mean       =   1.1898680841807E-03
(PID.TID 0000.0001) %MON trcstat_ptracer13_sd         =   2.1162130958670E-02
(PID.TID 0000.0001) %MON trcstat_ptracer13_del2       =   2.3803096094914E-06
(PID.TID 0000.0001) %MON trcstat_ptracer14_max        =   2.2336464738870E-04
(PID.TID 0000.0001) %MON trcstat_ptracer14_min        =  -3.9456872297367E-05
(PID.TID 0000.0001) %MON trcstat_ptracer14_mean       =   7.4366755261050E-08
(PID.TID 0000.0001) %MON trcstat_ptracer14_sd         =   1.3226331849163E-06
(PID.TID 0000.0001) %MON trcstat_ptracer14_del2       =   1.4876935060270E-10
(PID.TID 0000.0001) %MON trcstat_ptracer15_max        =   1.2652009752508E+00
(PID.TID 0000.0001) %MON trcstat_ptracer15_min        =  -1.8582108523447E-01
(PID.TID 0000.0001) %MON trcstat_ptracer15_mean       =   5.3931854250016E-04
(PID.TID 0000.0001) %MON trcstat_ptracer15_sd         =   9.9355865211002E-03
(PID.TID 0000.0001) %MON trcstat_ptracer15_del2       =   1.1106158581967E-06
(PID.TID 0000.0001) %MON trcstat_ptracer16_max        =   2.9141719875513E+00
(PID.TID 0000.0001) %MON trcstat_ptracer16_min        =  -5.7280588520804E-03
(PID.TID 0000.0001) %MON trcstat_ptracer16_mean       =   6.6558928836630E-04
(PID.TID 0000.0001) %MON trcstat_ptracer16_sd         =   2.1775153708176E-03
(PID.TID 0000.0001) %MON trcstat_ptracer16_del2       =   8.7033482896365E-07
(PID.TID 0000.0001) %MON trcstat_ptracer17_max        =   4.6626751800821E+01
(PID.TID 0000.0001) %MON trcstat_ptracer17_min        =  -9.1648941633287E-02
(PID.TID 0000.0001) %MON trcstat_ptracer17_mean       =   1.0649428613861E-02
(PID.TID 0000.0001) %MON trcstat_ptracer17_sd         =   3.4840245933058E-02
(PID.TID 0000.0001) %MON trcstat_ptracer17_del2       =   1.3925357263426E-05
(PID.TID 0000.0001) %MON trcstat_ptracer18_max        =   2.9141719875504E-03
(PID.TID 0000.0001) %MON trcstat_ptracer18_min        =  -5.7280588520805E-06
(PID.TID 0000.0001) %MON trcstat_ptracer18_mean       =   6.6558928836626E-07
(PID.TID 0000.0001) %MON trcstat_ptracer18_sd         =   2.1775153708167E-06
(PID.TID 0000.0001) %MON trcstat_ptracer18_del2       =   8.7033482896257E-10
(PID.TID 0000.0001) %MON trcstat_ptracer19_max        =   4.1681675119176E+02
(PID.TID 0000.0001) %MON trcstat_ptracer19_min        =  -3.2404923521908E-01
(PID.TID 0000.0001) %MON trcstat_ptracer19_mean       =   7.1451955469656E-02
(PID.TID 0000.0001) %MON trcstat_ptracer19_sd         =   2.2361293364128E-01
(PID.TID 0000.0001) %MON trcstat_ptracer19_del2       =   8.4571107969893E-05
(PID.TID 0000.0001) %MON trcstat_ptracer20_max        =   1.2312344724044E+00
(PID.TID 0000.0001) %MON trcstat_ptracer20_min        =  -1.1672407479057E-01
(PID.TID 0000.0001) %MON trcstat_ptracer20_mean       =   6.3429550221738E-04
(PID.TID 0000.0001) %MON trcstat_ptracer20_sd         =   5.3799029510195E-03
(PID.TID 0000.0001) %MON trcstat_ptracer20_del2       =   7.2082085564689E-07
(PID.TID 0000.0001) %MON trcstat_ptracer21_max        =   3.8014683072992E+00
(PID.TID 0000.0001) %MON trcstat_ptracer21_min        =  -2.1695359461248E-01
(PID.TID 0000.0001) %MON trcstat_ptracer21_mean       =   4.8798761867024E-03
(PID.TID 0000.0001) %MON trcstat_ptracer21_sd         =   2.9739824105323E-02
(PID.TID 0000.0001) %MON trcstat_ptracer21_del2       =   2.5366454765992E-06
(PID.TID 0000.0001) %MON trcstat_ptracer22_max        =   2.0859768605181E-01
(PID.TID 0000.0001) %MON trcstat_ptracer22_min        =  -7.3006190151853E-02
(PID.TID 0000.0001) %MON trcstat_ptracer22_mean       =   1.0677048530463E-04
(PID.TID 0000.0001) %MON trcstat_ptracer22_sd         =   1.8083896877135E-03
(PID.TID 0000.0001) %MON trcstat_ptracer22_del2       =   2.6694438892012E-07
(PID.TID 0000.0001) %MON trcstat_ptracer23_max        =   1.4209419220529E-01
(PID.TID 0000.0001) %MON trcstat_ptracer23_min        =  -5.4342232926081E-02
(PID.TID 0000.0001) %MON trcstat_ptracer23_mean       =   5.8629366963664E-05
(PID.TID 0000.0001) %MON trcstat_ptracer23_sd         =   8.5698159167682E-04
(PID.TID 0000.0001) %MON trcstat_ptracer23_del2       =   2.0283377652948E-07
(PID.TID 0000.0001) %MON trcstat_ptracer24_max        =   1.5807940789298E-01
(PID.TID 0000.0001) %MON trcstat_ptracer24_min        =  -5.3785107804269E-02
(PID.TID 0000.0001) %MON trcstat_ptracer24_mean       =   4.3749285097675E-05
(PID.TID 0000.0001) %MON trcstat_ptracer24_sd         =   6.3659324759338E-04
(PID.TID 0000.0001) %MON trcstat_ptracer24_del2       =   1.2223355519936E-07
(PID.TID 0000.0001) %MON trcstat_ptracer25_max        =   3.4529002562531E-03
(PID.TID 0000.0001) %MON trcstat_ptracer25_min        =  -1.2272733487755E-03
(PID.TID 0000.0001) %MON trcstat_ptracer25_mean       =   7.8050000460222E-08
(PID.TID 0000.0001) %MON trcstat_ptracer25_sd         =   1.2585599803359E-05
(PID.TID 0000.0001) %MON trcstat_ptracer25_del2       =   9.2913243705326E-10
(PID.TID 0000.0001) %MON trcstat_ptracer26_max        =   2.8062947454356E-02
(PID.TID 0000.0001) %MON trcstat_ptracer26_min        =  -4.7753763806049E-03
(PID.TID 0000.0001) %MON trcstat_ptracer26_mean       =   9.8186217137903E-05
(PID.TID 0000.0001) %MON trcstat_ptracer26_sd         =   8.8254982548548E-04
(PID.TID 0000.0001) %MON trcstat_ptracer26_del2       =   5.3902633695377E-08
(PID.TID 0000.0001) %MON trcstat_ptracer27_max        =   3.2325697214532E+01
(PID.TID 0000.0001) %MON trcstat_ptracer27_min        =  -1.3885719434993E+00
(PID.TID 0000.0001) %MON trcstat_ptracer27_mean       =   4.3897877941785E-03
(PID.TID 0000.0001) %MON trcstat_ptracer27_sd         =   6.3282340400874E-02
(PID.TID 0000.0001) %MON trcstat_ptracer27_del2       =   1.2266339039329E-05
(PID.TID 0000.0001) %MON trcstat_ptracer28_max        =   8.6986949997766E+01
(PID.TID 0000.0001) %MON trcstat_ptracer28_min        =  -1.2950450554854E+00
(PID.TID 0000.0001) %MON trcstat_ptracer28_mean       =   3.1062966631862E-03
(PID.TID 0000.0001) %MON trcstat_ptracer28_sd         =   9.8609935422979E-02
(PID.TID 0000.0001) %MON trcstat_ptracer28_del2       =   1.3342852180097E-05
(PID.TID 0000.0001) %MON trcstat_ptracer29_max        =   4.7622744610472E+01
(PID.TID 0000.0001) %MON trcstat_ptracer29_min        =  -4.7418966172546E-01
(PID.TID 0000.0001) %MON trcstat_ptracer29_mean       =   5.3741884403321E-04
(PID.TID 0000.0001) %MON trcstat_ptracer29_sd         =   1.3566256608741E-02
(PID.TID 0000.0001) %MON trcstat_ptracer29_del2       =   7.2205588614174E-06
(PID.TID 0000.0001) %MON trcstat_ptracer30_max        =   1.1237898695044E-02
(PID.TID 0000.0001) %MON trcstat_ptracer30_min        =  -7.0103165160987E-03
(PID.TID 0000.0001) %MON trcstat_ptracer30_mean       =   2.7578572715747E-07
(PID.TID 0000.0001) %MON trcstat_ptracer30_sd         =   5.2206563419891E-05
(PID.TID 0000.0001) %MON trcstat_ptracer30_del2       =   3.5873603185545E-09
(PID.TID 0000.0001) %MON trcstat_ptracer31_max        =   3.8897369144277E+02
(PID.TID 0000.0001) %MON trcstat_ptracer31_min        =  -8.2124929959024E-01
(PID.TID 0000.0001) %MON trcstat_ptracer31_mean       =   1.4409683428561E-01
(PID.TID 0000.0001) %MON trcstat_ptracer31_sd         =   4.1264422045455E+00
(PID.TID 0000.0001) %MON trcstat_ptracer31_del2       =   9.8786366181945E-05
(PID.TID 0000.0001) %MON trcstat_ptracer32_max        =   2.5652629344179E+03
(PID.TID 0000.0001) %MON trcstat_ptracer32_min        =   1.1193863957806E+03
(PID.TID 0000.0001) %MON trcstat_ptracer32_mean       =   2.3369472767584E+03
(PID.TID 0000.0001) %MON trcstat_ptracer32_sd         =   8.6348173592764E+01
(PID.TID 0000.0001) %MON trcstat_ptracer32_del2       =   1.1996755689465E-03
(PID.TID 0000.0001) %MON trcstat_ptracer33_max        =   1.0172144551514E+02
(PID.TID 0000.0001) %MON trcstat_ptracer33_min        =  -1.0477784473876E+01
(PID.TID 0000.0001) %MON trcstat_ptracer33_mean       =   7.1904175182742E-01
(PID.TID 0000.0001) %MON trcstat_ptracer33_sd         =   4.0477406709819E+00
(PID.TID 0000.0001) %MON trcstat_ptracer33_del2       =   1.8294916894983E-04
(PID.TID 0000.0001) %MON trcstat_ptracer34_max        =   7.5768499600681E+02
(PID.TID 0000.0001) %MON trcstat_ptracer34_min        =  -7.0798744596815E-01
(PID.TID 0000.0001) %MON trcstat_ptracer34_mean       =   1.5707667468210E-01
(PID.TID 0000.0001) %MON trcstat_ptracer34_sd         =   4.3847943690955E-01
(PID.TID 0000.0001) %MON trcstat_ptracer34_del2       =   1.9808874352192E-04
(PID.TID 0000.0001) %MON trcstat_ptracer35_max        =   1.4042580080430E+02
(PID.TID 0000.0001) %MON trcstat_ptracer35_min        =  -6.6723658454800E-02
(PID.TID 0000.0001) %MON trcstat_ptracer35_mean       =   1.4853879169732E-02
(PID.TID 0000.0001) %MON trcstat_ptracer35_sd         =   7.0302237226208E-02
(PID.TID 0000.0001) %MON trcstat_ptracer35_del2       =   3.2071831958612E-05
(PID.TID 0000.0001) %MON trcstat_ptracer36_max        =   2.7603910319915E+03
(PID.TID 0000.0001) %MON trcstat_ptracer36_min        =   1.0964523871384E+03
(PID.TID 0000.0001) %MON trcstat_ptracer36_mean       =   2.4479561260047E+03
(PID.TID 0000.0001) %MON trcstat_ptracer36_sd         =   5.6914082627157E+01
(PID.TID 0000.0001) %MON trcstat_ptracer36_del2       =   8.7694004116108E-04
(PID.TID 0000.0001) %MON trcstat_ptracer37_max        =   4.9287195365180E+02
(PID.TID 0000.0001) %MON trcstat_ptracer37_min        =  -8.8688638925090E+01
(PID.TID 0000.0001) %MON trcstat_ptracer37_mean       =   1.7828543360314E+02
(PID.TID 0000.0001) %MON trcstat_ptracer37_sd         =   6.6694075358232E+01
(PID.TID 0000.0001) %MON trcstat_ptracer37_del2       =   1.3986532620390E-03
(PID.TID 0000.0001) %MON trcstat_ptracer38_max        =   6.8254972871180E+00
(PID.TID 0000.0001) %MON trcstat_ptracer38_min        =  -1.3671861201390E+00
(PID.TID 0000.0001) %MON trcstat_ptracer38_mean       =   4.1684938620216E-03
(PID.TID 0000.0001) %MON trcstat_ptracer38_sd         =   6.4251128537631E-02
(PID.TID 0000.0001) %MON trcstat_ptracer38_del2       =   5.1534758327457E-06
(PID.TID 0000.0001) %MON trcstat_ptracer39_max        =   2.6803757686644E+01
(PID.TID 0000.0001) %MON trcstat_ptracer39_min        =  -4.7348246756841E+00
(PID.TID 0000.0001) %MON trcstat_ptracer39_mean       =   8.9240106313087E-03
(PID.TID 0000.0001) %MON trcstat_ptracer39_sd         =   1.5871598219022E-01
(PID.TID 0000.0001) %MON trcstat_ptracer39_del2       =   1.7852322072651E-05
(PID.TID 0000.0001) // =======================================================
(PID.TID 0000.0001) // End MONITOR ptracers field statistics
(PID.TID 0000.0001) // =======================================================
(PID.TID 0000.0001) // =======================================================
(PID.TID 0000.0001) // Begin MONITOR EXF statistics
(PID.TID 0000.0001) // =======================================================
(PID.TID 0000.0001) %MON exf_tsnumber                 =                     1
(PID.TID 0000.0001) %MON exf_time_sec                 =   1.2000000000000E+03
(PID.TID 0000.0001) %MON exf_ustress_max              =   2.3790413906058E+00
(PID.TID 0000.0001) %MON exf_ustress_min              =  -1.2542056994356E+00
(PID.TID 0000.0001) %MON exf_ustress_mean             =   1.1606880343763E-02
(PID.TID 0000.0001) %MON exf_ustress_sd               =   1.0979588921835E-01
(PID.TID 0000.0001) %MON exf_ustress_del2             =   6.7488293908041E-06
(PID.TID 0000.0001) %MON exf_vstress_max              =   2.1853365020092E+00
(PID.TID 0000.0001) %MON exf_vstress_min              =  -1.5972006358106E+00
(PID.TID 0000.0001) %MON exf_vstress_mean             =   3.2031078723467E-03
(PID.TID 0000.0001) %MON exf_vstress_sd               =   1.0245229099330E-01
(PID.TID 0000.0001) %MON exf_vstress_del2             =   6.2212708626983E-06
(PID.TID 0000.0001) %MON exf_hflux_max                =   1.1172808196639E+03
(PID.TID 0000.0001) %MON exf_hflux_min                =  -5.8775254036877E+02
(PID.TID 0000.0001) %MON exf_hflux_mean               =  -7.9389241933035E+00
(PID.TID 0000.0001) %MON exf_hflux_sd                 =   2.2586366748761E+02
(PID.TID 0000.0001) %MON exf_hflux_del2               =   1.2977916128849E-01
(PID.TID 0000.0001) %MON exf_sflux_max                =   2.6096399994423E-07
(PID.TID 0000.0001) %MON exf_sflux_min                =  -2.1301226020407E-06
(PID.TID 0000.0001) %MON exf_sflux_mean               =   6.1785065559486E-09
(PID.TID 0000.0001) %MON exf_sflux_sd                 =   8.0397847224591E-08
(PID.TID 0000.0001) %MON exf_sflux_del2               =   3.9495801288290E-11
(PID.TID 0000.0001) %MON exf_uwind_max                =   2.7504447133431E+01
(PID.TID 0000.0001) %MON exf_uwind_min                =  -2.1791044077800E+01
(PID.TID 0000.0001) %MON exf_uwind_mean               =   2.4748878668619E-01
(PID.TID 0000.0001) %MON exf_uwind_sd                 =   5.4616394104126E+00
(PID.TID 0000.0001) %MON exf_uwind_del2               =   2.9347857437713E-03
(PID.TID 0000.0001) %MON exf_vwind_max                =   2.7681781446388E+01
(PID.TID 0000.0001) %MON exf_vwind_min                =  -1.9343049088439E+01
(PID.TID 0000.0001) %MON exf_vwind_mean               =  -3.9217774975401E-01
(PID.TID 0000.0001) %MON exf_vwind_sd                 =   5.5993456709182E+00
(PID.TID 0000.0001) %MON exf_vwind_del2               =   2.8498935507227E-03
(PID.TID 0000.0001) %MON exf_wspeed_max               =   2.9660991882440E+01
(PID.TID 0000.0001) %MON exf_wspeed_min               =   1.6676482233813E-02
(PID.TID 0000.0001) %MON exf_wspeed_mean              =   7.1000508275742E+00
(PID.TID 0000.0001) %MON exf_wspeed_sd                =   3.3145903705591E+00
(PID.TID 0000.0001) %MON exf_wspeed_del2              =   4.0840875885396E-03
(PID.TID 0000.0001) %MON exf_atemp_max                =   3.0490100362478E+02
(PID.TID 0000.0001) %MON exf_atemp_min                =   2.2917208103904E+02
(PID.TID 0000.0001) %MON exf_atemp_mean               =   2.8929332184953E+02
(PID.TID 0000.0001) %MON exf_atemp_sd                 =   1.2292084939830E+01
(PID.TID 0000.0001) %MON exf_atemp_del2               =   8.6176924538668E-03
(PID.TID 0000.0001) %MON exf_aqh_max                  =   2.2294856422846E-02
(PID.TID 0000.0001) %MON exf_aqh_min                  =   8.2071150892076E-05
(PID.TID 0000.0001) %MON exf_aqh_mean                 =   1.1045985237956E-02
(PID.TID 0000.0001) %MON exf_aqh_sd                   =   5.7264108396934E-03
(PID.TID 0000.0001) %MON exf_aqh_del2                 =   4.8045061068414E-06
(PID.TID 0000.0001) %MON exf_lwflux_max               =   2.0885286341270E+02
(PID.TID 0000.0001) %MON exf_lwflux_min               =  -1.5710616961527E+01
(PID.TID 0000.0001) %MON exf_lwflux_mean              =   5.2257467764769E+01
(PID.TID 0000.0001) %MON exf_lwflux_sd                =   2.8732079227112E+01
(PID.TID 0000.0001) %MON exf_lwflux_del2              =   3.3226859921916E-02
(PID.TID 0000.0001) %MON exf_evap_max                 =   2.6718507599690E-07
(PID.TID 0000.0001) %MON exf_evap_min                 =  -2.1656453429119E-08
(PID.TID 0000.0001) %MON exf_evap_mean                =   4.5117035027630E-08
(PID.TID 0000.0001) %MON exf_evap_sd                  =   2.9968886852121E-08
(PID.TID 0000.0001) %MON exf_evap_del2                =   2.3079021900703E-11
(PID.TID 0000.0001) %MON exf_precip_max               =   1.2904304461817E-06
(PID.TID 0000.0001) %MON exf_precip_min               =  -2.0401324912104E-09
(PID.TID 0000.0001) %MON exf_precip_mean              =   3.5894451962385E-08
(PID.TID 0000.0001) %MON exf_precip_sd                =   6.8978850670877E-08
(PID.TID 0000.0001) %MON exf_precip_del2              =   3.6686827485649E-11
(PID.TID 0000.0001) %MON exf_swflux_max               =   7.6896352797800E+00
(PID.TID 0000.0001) %MON exf_swflux_min               =  -6.8447235682461E+02
(PID.TID 0000.0001) %MON exf_swflux_mean              =  -2.0154585555651E+02
(PID.TID 0000.0001) %MON exf_swflux_sd                =   1.7157359425202E+02
(PID.TID 0000.0001) %MON exf_swflux_del2              =   1.2125806543825E-01
(PID.TID 0000.0001) %MON exf_swdown_max               =   7.3823496397031E+02
(PID.TID 0000.0001) %MON exf_swdown_min               =  -8.2911325622275E+00
(PID.TID 0000.0001) %MON exf_swdown_mean              =   2.1854301730896E+02
(PID.TID 0000.0001) %MON exf_swdown_sd                =   1.8531831892233E+02
(PID.TID 0000.0001) %MON exf_swdown_del2              =   1.3166700640858E-01
(PID.TID 0000.0001) %MON exf_lwdown_max               =   4.5699944552449E+02
(PID.TID 0000.0001) %MON exf_lwdown_min               =   9.1693127413520E+01
(PID.TID 0000.0001) %MON exf_lwdown_mean              =   3.5954111595829E+02
(PID.TID 0000.0001) %MON exf_lwdown_sd                =   6.4727931139047E+01
(PID.TID 0000.0001) %MON exf_lwdown_del2              =   1.6234457078964E-01
(PID.TID 0000.0001) %MON exf_runoff_max               =   2.1964194875336E-06
(PID.TID 0000.0001) %MON exf_runoff_min               =   0.0000000000000E+00
(PID.TID 0000.0001) %MON exf_runoff_mean              =   3.0440765092964E-09
(PID.TID 0000.0001) %MON exf_runoff_sd                =   2.3388036234256E-08
(PID.TID 0000.0001) %MON exf_runoff_del2              =   1.4542388919637E-11
(PID.TID 0000.0001) %MON exf_apco2_max                =   3.6150775617275E-04
(PID.TID 0000.0001) %MON exf_apco2_min                =   3.5358208292132E-04
(PID.TID 0000.0001) %MON exf_apco2_mean               =   3.5574454071552E-04
(PID.TID 0000.0001) %MON exf_apco2_sd                 =   2.0998724196445E-06
(PID.TID 0000.0001) %MON exf_apco2_del2               =   1.7447580976818E-07
(PID.TID 0000.0001) // =======================================================
(PID.TID 0000.0001) // End MONITOR EXF statistics
(PID.TID 0000.0001) // =======================================================
(PID.TID 0000.0001) S/R DARWIN_FIELDS_LOAD: Reading forcing data  1.200000000000E+03          1
 SEAICE_LSR: Residual Initial ipass,Uice,Vice=    1  8.31868132E-02  1.44197757E-01
 SEAICE_LSR: Residual FrDrift U_fd,V_fd=  5.04605495E+02  6.43640220E+02
 SEAICE_LSR (ipass=   1) iters,dU,Resid=    82  1.98478469E-04  7.40953911E-03
 SEAICE_LSR (ipass=   1) iters,dV,Resid=    82  9.73240829E-05  8.23923753E-03
 SEAICE_LSR: Residual Initial ipass,Uice,Vice=    2  5.76026143E-01  4.84708309E-01
 SEAICE_LSR: Residual FrDrift U_fd,V_fd=  5.04585196E+02  6.43631099E+02
 SEAICE_LSR (ipass=   2) iters,dU,Resid=    52  1.91417527E-04  7.28547279E-03
 SEAICE_LSR (ipass=   2) iters,dV,Resid=    52  1.08176850E-04  8.40999990E-03
(PID.TID 0000.0001) SOLVE_FOR_PRESSURE: putPmEinXvector =    F
 cg2d: Sum(rhs),rhsMax =  -9.66692517705611E+02  5.90826143030087E-02
(PID.TID 0000.0001)      cg2d_init_res =   4.62372596867200E-01
(PID.TID 0000.0001)      cg2d_iters(min,last) =      -1      96
(PID.TID 0000.0001)      cg2d_last_res =   4.41033611530256E-05
(PID.TID 0000.0001) // =======================================================
(PID.TID 0000.0001) // Begin MONITOR dynamic field statistics
(PID.TID 0000.0001) // =======================================================
(PID.TID 0000.0001) %MON time_tsnumber                =                     2
(PID.TID 0000.0001) %MON time_secondsf                =   2.4000000000000E+03
(PID.TID 0000.0001) %MON dynstat_eta_max              =   1.1665261654783E+00
(PID.TID 0000.0001) %MON dynstat_eta_min              =  -5.5823396215657E+00
(PID.TID 0000.0001) %MON dynstat_eta_mean             =   4.4833171285160E-02
(PID.TID 0000.0001) %MON dynstat_eta_sd               =   7.9649452066881E-01
(PID.TID 0000.0001) %MON dynstat_eta_del2             =   3.5058681660282E-05
(PID.TID 0000.0001) %MON dynstat_uvel_max             =   1.4798120936375E+00
(PID.TID 0000.0001) %MON dynstat_uvel_min             =  -9.4951030030471E-01
(PID.TID 0000.0001) %MON dynstat_uvel_mean            =   1.1655801185724E-03
(PID.TID 0000.0001) %MON dynstat_uvel_sd              =   2.4395988167479E-02
(PID.TID 0000.0001) %MON dynstat_uvel_del2            =   3.0245493522038E-06
(PID.TID 0000.0001) %MON dynstat_vvel_max             =   1.4409019142181E+00
(PID.TID 0000.0001) %MON dynstat_vvel_min             =  -1.4706436433995E+00
(PID.TID 0000.0001) %MON dynstat_vvel_mean            =   1.0190679083811E-03
(PID.TID 0000.0001) %MON dynstat_vvel_sd              =   2.7003870621999E-02
(PID.TID 0000.0001) %MON dynstat_vvel_del2            =   3.0067261339800E-06
(PID.TID 0000.0001) %MON dynstat_wvel_max             =   3.5158874919719E-03
(PID.TID 0000.0001) %MON dynstat_wvel_min             =  -6.3730051195467E-03
(PID.TID 0000.0001) %MON dynstat_wvel_mean            =  -5.3344266573433E-09
(PID.TID 0000.0001) %MON dynstat_wvel_sd              =   6.8793728967484E-05
(PID.TID 0000.0001) %MON dynstat_wvel_del2            =   1.5937644548525E-08
(PID.TID 0000.0001) %MON dynstat_theta_max            =   3.3008586049533E+01
(PID.TID 0000.0001) %MON dynstat_theta_min            =  -2.0000145753426E+00
(PID.TID 0000.0001) %MON dynstat_theta_mean           =   3.5847752654094E+00
(PID.TID 0000.0001) %MON dynstat_theta_sd             =   4.4307799406217E+00
(PID.TID 0000.0001) %MON dynstat_theta_del2           =   1.5796324782230E-05
(PID.TID 0000.0001) %MON dynstat_salt_max             =   4.1000142355437E+01
(PID.TID 0000.0001) %MON dynstat_salt_min             =   2.8994521662680E+01
(PID.TID 0000.0001) %MON dynstat_salt_mean            =   3.4727079211961E+01
(PID.TID 0000.0001) %MON dynstat_salt_sd              =   3.8902314687187E-01
(PID.TID 0000.0001) %MON dynstat_salt_del2            =   4.6771683545090E-06
(PID.TID 0000.0001) %MON dynstat_sst_max              =   3.3008586049533E+01
(PID.TID 0000.0001) %MON dynstat_sst_min              =  -1.9608288191903E+00
(PID.TID 0000.0001) %MON dynstat_sst_mean             =   1.8546278544536E+01
(PID.TID 0000.0001) %MON dynstat_sst_sd               =   1.0127590709250E+01
(PID.TID 0000.0001) %MON dynstat_sst_del2             =   1.6874054417825E-04
(PID.TID 0000.0001) %MON dynstat_sss_max              =   4.1000142355437E+01
(PID.TID 0000.0001) %MON dynstat_sss_min              =   2.8994521662680E+01
(PID.TID 0000.0001) %MON dynstat_sss_mean             =   3.4555310045914E+01
(PID.TID 0000.0001) %MON dynstat_sss_sd               =   1.3641124295785E+00
(PID.TID 0000.0001) %MON dynstat_sss_del2             =   7.8446766846356E-05
(PID.TID 0000.0001) %MON forcing_qnet_max             =   9.0750038755183E+02
(PID.TID 0000.0001) %MON forcing_qnet_min             =  -1.3535166613752E+03
(PID.TID 0000.0001) %MON forcing_qnet_mean            =  -2.2072630367458E+01
(PID.TID 0000.0001) %MON forcing_qnet_sd              =   2.0054335449186E+02
(PID.TID 0000.0001) %MON forcing_qnet_del2            =   2.6092145095755E-02
(PID.TID 0000.0001) %MON forcing_qsw_max              =   7.6896352797800E+00
(PID.TID 0000.0001) %MON forcing_qsw_min              =  -6.8447235682461E+02
(PID.TID 0000.0001) %MON forcing_qsw_mean             =  -1.9914953603792E+02
(PID.TID 0000.0001) %MON forcing_qsw_sd               =   1.7162355361827E+02
(PID.TID 0000.0001) %MON forcing_qsw_del2             =   8.1830796191965E-03
(PID.TID 0000.0001) %MON forcing_empmr_max            =   3.4966205060463E-03
(PID.TID 0000.0001) %MON forcing_empmr_min            =  -2.1301226020407E-03
(PID.TID 0000.0001) %MON forcing_empmr_mean           =   3.9254535030691E-06
(PID.TID 0000.0001) %MON forcing_empmr_sd             =   9.8770339459966E-05
(PID.TID 0000.0001) %MON forcing_empmr_del2           =   7.8227998053904E-08
(PID.TID 0000.0001) %MON forcing_fu_max               =   2.0000000000000E+00
(PID.TID 0000.0001) %MON forcing_fu_min               =  -7.6167648762197E-01
(PID.TID 0000.0001) %MON forcing_fu_mean              =   1.1575486856971E-02
(PID.TID 0000.0001) %MON forcing_fu_sd                =   1.0980622001624E-01
(PID.TID 0000.0001) %MON forcing_fu_del2              =   1.0052543704193E-05
(PID.TID 0000.0001) %MON forcing_fv_max               =   2.0000000000000E+00
(PID.TID 0000.0001) %MON forcing_fv_min               =  -1.5866508354017E+00
(PID.TID 0000.0001) %MON forcing_fv_mean              =   2.9723190462332E-03
(PID.TID 0000.0001) %MON forcing_fv_sd                =   1.0211595617456E-01
(PID.TID 0000.0001) %MON forcing_fv_del2              =   9.2899446894663E-06
(PID.TID 0000.0001) %MON trAdv_CFL_u_max              =   1.0017627428714E-01
(PID.TID 0000.0001) %MON trAdv_CFL_v_max              =   6.0117257522404E-02
(PID.TID 0000.0001) %MON trAdv_CFL_w_max              =   2.8029748367164E-01
(PID.TID 0000.0001) %MON advcfl_uvel_max              =   1.0003843377571E-01
(PID.TID 0000.0001) %MON advcfl_vvel_max              =   5.8930399691204E-02
(PID.TID 0000.0001) %MON advcfl_wvel_max              =   2.7395143929914E-01
(PID.TID 0000.0001) %MON advcfl_W_hf_max              =   2.8191816422353E-01
(PID.TID 0000.0001) %MON pe_b_mean                    =   3.0729989423750E-04
(PID.TID 0000.0001) %MON ke_max                       =   1.0431236449766E+00
(PID.TID 0000.0001) %MON ke_mean                      =   6.4762752231138E-04
(PID.TID 0000.0001) %MON ke_vol                       =   1.3346996887699E+18
(PID.TID 0000.0001) %MON vort_r_min                   =  -1.0447601507291E-04
(PID.TID 0000.0001) %MON vort_r_max                   =   8.2849053397456E-05
(PID.TID 0000.0001) %MON vort_a_mean                  =  -1.9771265317094E-05
(PID.TID 0000.0001) %MON vort_a_sd                    =   7.4554641390178E-05
(PID.TID 0000.0001) %MON vort_p_mean                  =  -2.1179977997443E-05
(PID.TID 0000.0001) %MON vort_p_sd                    =   8.8323305177356E-05
(PID.TID 0000.0001) %MON surfExpan_theta_mean         =  -1.0778652096303E-07
(PID.TID 0000.0001) %MON surfExpan_salt_mean          =   1.8342303390149E-08
(PID.TID 0000.0001) // =======================================================
(PID.TID 0000.0001) // End MONITOR dynamic field statistics
(PID.TID 0000.0001) // =======================================================
(PID.TID 0000.0001) // =======================================================
(PID.TID 0000.0001) // Begin MONITOR SEAICE statistics
(PID.TID 0000.0001) // =======================================================
(PID.TID 0000.0001) %MON seaice_tsnumber              =                     2
(PID.TID 0000.0001) %MON seaice_time_sec              =   2.4000000000000E+03
(PID.TID 0000.0001) %MON seaice_uice_max              =   4.0000000000000E-01
(PID.TID 0000.0001) %MON seaice_uice_min              =  -4.0000000000000E-01
(PID.TID 0000.0001) %MON seaice_uice_mean             =   3.6422082587139E-04
(PID.TID 0000.0001) %MON seaice_uice_sd               =   1.8172254573860E-01
(PID.TID 0000.0001) %MON seaice_uice_del2             =   3.2091902914283E-05
(PID.TID 0000.0001) %MON seaice_vice_max              =   4.0000000000000E-01
(PID.TID 0000.0001) %MON seaice_vice_min              =  -4.0000000000000E-01
(PID.TID 0000.0001) %MON seaice_vice_mean             =  -1.7623591377199E-03
(PID.TID 0000.0001) %MON seaice_vice_sd               =   1.8185873396324E-01
(PID.TID 0000.0001) %MON seaice_vice_del2             =   3.2985822397003E-05
(PID.TID 0000.0001) %MON seaice_area_max              =   9.5000000000000E-01
(PID.TID 0000.0001) %MON seaice_area_min              =   0.0000000000000E+00
(PID.TID 0000.0001) %MON seaice_area_mean             =   4.7750266676481E-02
(PID.TID 0000.0001) %MON seaice_area_sd               =   1.9562567482159E-01
(PID.TID 0000.0001) %MON seaice_area_del2             =   4.2417887536272E-05
(PID.TID 0000.0001) %MON seaice_heff_max              =   5.7658391436226E+00
(PID.TID 0000.0001) %MON seaice_heff_min              =   0.0000000000000E+00
(PID.TID 0000.0001) %MON seaice_heff_mean             =   8.3073118735530E-02
(PID.TID 0000.0001) %MON seaice_heff_sd               =   4.3471843659175E-01
(PID.TID 0000.0001) %MON seaice_heff_del2             =   3.7482217540457E-05
(PID.TID 0000.0001) %MON seaice_hsnow_max             =   8.5189402525331E-01
(PID.TID 0000.0001) %MON seaice_hsnow_min             =  -2.7177690856968E-07
(PID.TID 0000.0001) %MON seaice_hsnow_mean            =   5.2330303166640E-03
(PID.TID 0000.0001) %MON seaice_hsnow_sd              =   2.9416381528658E-02
(PID.TID 0000.0001) %MON seaice_hsnow_del2            =   4.7030061809745E-06
(PID.TID 0000.0001) // =======================================================
(PID.TID 0000.0001) // End MONITOR SEAICE statistics
(PID.TID 0000.0001) // =======================================================
(PID.TID 0000.0001) // =======================================================
(PID.TID 0000.0001) // Begin MONITOR ptracer field statistics
(PID.TID 0000.0001) // =======================================================
(PID.TID 0000.0001) %MON trcstat_ptracer01_max        =   4.0383341853801E+00
(PID.TID 0000.0001) %MON trcstat_ptracer01_min        =  -9.3715586160922E-01
(PID.TID 0000.0001) %MON trcstat_ptracer01_mean       =   2.2269002504379E+00
(PID.TID 0000.0001) %MON trcstat_ptracer01_sd         =   6.6880287034137E-01
(PID.TID 0000.0001) %MON trcstat_ptracer01_del2       =   1.2827217338573E-05
(PID.TID 0000.0001) %MON trcstat_ptracer02_max        =   5.7743744348287E+01
(PID.TID 0000.0001) %MON trcstat_ptracer02_min        =  -7.0315287372063E+00
(PID.TID 0000.0001) %MON trcstat_ptracer02_mean       =   3.1702734924059E+01
(PID.TID 0000.0001) %MON trcstat_ptracer02_sd         =   9.3870104256727E+00
(PID.TID 0000.0001) %MON trcstat_ptracer02_del2       =   1.8957243489032E-04
(PID.TID 0000.0001) %MON trcstat_ptracer03_max        =   1.0955663073319E-03
(PID.TID 0000.0001) %MON trcstat_ptracer03_min        =  -1.4461978377433E-04
(PID.TID 0000.0001) %MON trcstat_ptracer03_mean       =   5.5046407768780E-04
(PID.TID 0000.0001) %MON trcstat_ptracer03_sd         =   1.2604796910639E-04
(PID.TID 0000.0001) %MON trcstat_ptracer03_del2       =   4.3934594796836E-09
(PID.TID 0000.0001) %MON trcstat_ptracer04_max        =   2.5508076575900E+02
(PID.TID 0000.0001) %MON trcstat_ptracer04_min        =  -3.6565507072875E+01
(PID.TID 0000.0001) %MON trcstat_ptracer04_mean       =   9.0903068015383E+01
(PID.TID 0000.0001) %MON trcstat_ptracer04_sd         =   5.3320813270629E+01
(PID.TID 0000.0001) %MON trcstat_ptracer04_del2       =   5.3237469256609E-04
(PID.TID 0000.0001) %MON trcstat_ptracer05_max        =   6.0381910377369E-01
(PID.TID 0000.0001) %MON trcstat_ptracer05_min        =  -5.5178809742972E-02
(PID.TID 0000.0001) %MON trcstat_ptracer05_mean       =   3.0289317003882E-03
(PID.TID 0000.0001) %MON trcstat_ptracer05_sd         =   1.9517656005836E-02
(PID.TID 0000.0001) %MON trcstat_ptracer05_del2       =   1.0290874287756E-06
(PID.TID 0000.0001) %MON trcstat_ptracer06_max        =   9.6611056603791E+00
(PID.TID 0000.0001) %MON trcstat_ptracer06_min        =  -8.8286095589078E-01
(PID.TID 0000.0001) %MON trcstat_ptracer06_mean       =   4.8462907206210E-02
(PID.TID 0000.0001) %MON trcstat_ptracer06_sd         =   3.1228249609336E-01
(PID.TID 0000.0001) %MON trcstat_ptracer06_del2       =   1.6465398860409E-05
(PID.TID 0000.0001) %MON trcstat_ptracer07_max        =   6.0381910377369E-04
(PID.TID 0000.0001) %MON trcstat_ptracer07_min        =  -5.5178809743206E-05
(PID.TID 0000.0001) %MON trcstat_ptracer07_mean       =   3.0289317003884E-06
(PID.TID 0000.0001) %MON trcstat_ptracer07_sd         =   1.9517656005837E-05
(PID.TID 0000.0001) %MON trcstat_ptracer07_del2       =   1.0290874287753E-09
(PID.TID 0000.0001) %MON trcstat_ptracer08_max        =   5.6881779346732E-02
(PID.TID 0000.0001) %MON trcstat_ptracer08_min        =  -1.1390820911567E-02
(PID.TID 0000.0001) %MON trcstat_ptracer08_mean       =   3.4738187012862E-05
(PID.TID 0000.0001) %MON trcstat_ptracer08_sd         =   5.3523432010536E-04
(PID.TID 0000.0001) %MON trcstat_ptracer08_del2       =   4.2900957649933E-08
(PID.TID 0000.0001) %MON trcstat_ptracer09_max        =   9.1010846954769E-01
(PID.TID 0000.0001) %MON trcstat_ptracer09_min        =  -1.8225313458508E-01
(PID.TID 0000.0001) %MON trcstat_ptracer09_mean       =   5.5581099220724E-04
(PID.TID 0000.0001) %MON trcstat_ptracer09_sd         =   8.5637491216754E-03
(PID.TID 0000.0001) %MON trcstat_ptracer09_del2       =   6.8641532245367E-07
(PID.TID 0000.0001) %MON trcstat_ptracer10_max        =   5.6881779346762E-05
(PID.TID 0000.0001) %MON trcstat_ptracer10_min        =  -1.1390820911567E-05
(PID.TID 0000.0001) %MON trcstat_ptracer10_mean       =   3.4738187012991E-08
(PID.TID 0000.0001) %MON trcstat_ptracer10_sd         =   5.3523432010504E-07
(PID.TID 0000.0001) %MON trcstat_ptracer10_del2       =   4.2900957649039E-11
(PID.TID 0000.0001) %MON trcstat_ptracer11_max        =   3.0999238257127E-02
(PID.TID 0000.0001) %MON trcstat_ptracer11_min        =  -3.1786375639643E-03
(PID.TID 0000.0001) %MON trcstat_ptracer11_mean       =   6.4706140974660E-06
(PID.TID 0000.0001) %MON trcstat_ptracer11_sd         =   1.4277219776545E-04
(PID.TID 0000.0001) %MON trcstat_ptracer11_del2       =   1.6557500078945E-08
(PID.TID 0000.0001) %MON trcstat_ptracer12_max        =   2.2331841866021E-01
(PID.TID 0000.0001) %MON trcstat_ptracer12_min        =  -3.9445551480903E-02
(PID.TID 0000.0001) %MON trcstat_ptracer12_mean       =   7.4366312134264E-05
(PID.TID 0000.0001) %MON trcstat_ptracer12_sd         =   1.3223055328277E-03
(PID.TID 0000.0001) %MON trcstat_ptracer12_del2       =   1.4829597077237E-07
(PID.TID 0000.0001) %MON trcstat_ptracer13_max        =   3.5730946985634E+00
(PID.TID 0000.0001) %MON trcstat_ptracer13_min        =  -6.3112882369445E-01
(PID.TID 0000.0001) %MON trcstat_ptracer13_mean       =   1.1898609941470E-03
(PID.TID 0000.0001) %MON trcstat_ptracer13_sd         =   2.1156888525232E-02
(PID.TID 0000.0001) %MON trcstat_ptracer13_del2       =   2.3727355321141E-06
(PID.TID 0000.0001) %MON trcstat_ptracer14_max        =   2.2331841866021E-04
(PID.TID 0000.0001) %MON trcstat_ptracer14_min        =  -3.9445551480903E-05
(PID.TID 0000.0001) %MON trcstat_ptracer14_mean       =   7.4366312133945E-08
(PID.TID 0000.0001) %MON trcstat_ptracer14_sd         =   1.3223055328264E-06
(PID.TID 0000.0001) %MON trcstat_ptracer14_del2       =   1.4829597076650E-10
(PID.TID 0000.0001) %MON trcstat_ptracer15_max        =   1.2657007154791E+00
(PID.TID 0000.0001) %MON trcstat_ptracer15_min        =  -1.8578008514183E-01
(PID.TID 0000.0001) %MON trcstat_ptracer15_mean       =   5.3931830406778E-04
(PID.TID 0000.0001) %MON trcstat_ptracer15_sd         =   9.9323493699975E-03
(PID.TID 0000.0001) %MON trcstat_ptracer15_del2       =   1.1076506044633E-06
(PID.TID 0000.0001) %MON trcstat_ptracer16_max        =   2.8695146301118E+00
(PID.TID 0000.0001) %MON trcstat_ptracer16_min        =  -5.7230800090867E-03
(PID.TID 0000.0001) %MON trcstat_ptracer16_mean       =   6.6550357461406E-04
(PID.TID 0000.0001) %MON trcstat_ptracer16_sd         =   2.1612904492465E-03
(PID.TID 0000.0001) %MON trcstat_ptracer16_del2       =   8.5574851836635E-07
(PID.TID 0000.0001) %MON trcstat_ptracer17_max        =   4.5912234081789E+01
(PID.TID 0000.0001) %MON trcstat_ptracer17_min        =  -9.1569280145387E-02
(PID.TID 0000.0001) %MON trcstat_ptracer17_mean       =   1.0648057193825E-02
(PID.TID 0000.0001) %MON trcstat_ptracer17_sd         =   3.4580647187920E-02
(PID.TID 0000.0001) %MON trcstat_ptracer17_del2       =   1.3691976293870E-05
(PID.TID 0000.0001) %MON trcstat_ptracer18_max        =   2.8695146301109E-03
(PID.TID 0000.0001) %MON trcstat_ptracer18_min        =  -5.7230800090867E-06
(PID.TID 0000.0001) %MON trcstat_ptracer18_mean       =   6.6550357461402E-07
(PID.TID 0000.0001) %MON trcstat_ptracer18_sd         =   2.1612904492455E-06
(PID.TID 0000.0001) %MON trcstat_ptracer18_del2       =   8.5574851836528E-10
(PID.TID 0000.0001) %MON trcstat_ptracer19_max        =   4.0893504362825E+02
(PID.TID 0000.0001) %MON trcstat_ptracer19_min        =  -3.2391319124635E-01
(PID.TID 0000.0001) %MON trcstat_ptracer19_mean       =   7.1435765041121E-02
(PID.TID 0000.0001) %MON trcstat_ptracer19_sd         =   2.2012740714251E-01
(PID.TID 0000.0001) %MON trcstat_ptracer19_del2       =   8.3580997206876E-05
(PID.TID 0000.0001) %MON trcstat_ptracer20_max        =   1.2272416254842E+00
(PID.TID 0000.0001) %MON trcstat_ptracer20_min        =  -1.1579272132306E-01
(PID.TID 0000.0001) %MON trcstat_ptracer20_mean       =   6.3467591110032E-04
(PID.TID 0000.0001) %MON trcstat_ptracer20_sd         =   5.3802978232523E-03
(PID.TID 0000.0001) %MON trcstat_ptracer20_del2       =   7.1493567493666E-07
(PID.TID 0000.0001) %MON trcstat_ptracer21_max        =   3.7999351631156E+00
(PID.TID 0000.0001) %MON trcstat_ptracer21_min        =  -2.1644771132299E-01
(PID.TID 0000.0001) %MON trcstat_ptracer21_mean       =   4.8799339372759E-03
(PID.TID 0000.0001) %MON trcstat_ptracer21_sd         =   2.9718908063824E-02
(PID.TID 0000.0001) %MON trcstat_ptracer21_del2       =   2.5413785732086E-06
(PID.TID 0000.0001) %MON trcstat_ptracer22_max        =   2.0607378602869E-01
(PID.TID 0000.0001) %MON trcstat_ptracer22_min        =  -7.2927842568388E-02
(PID.TID 0000.0001) %MON trcstat_ptracer22_mean       =   1.0678230651864E-04
(PID.TID 0000.0001) %MON trcstat_ptracer22_sd         =   1.8076752552757E-03
(PID.TID 0000.0001) %MON trcstat_ptracer22_del2       =   2.6407318084347E-07
(PID.TID 0000.0001) %MON trcstat_ptracer23_max        =   1.4263980031018E-01
(PID.TID 0000.0001) %MON trcstat_ptracer23_min        =  -5.1896867176165E-02
(PID.TID 0000.0001) %MON trcstat_ptracer23_mean       =   5.8629692587961E-05
(PID.TID 0000.0001) %MON trcstat_ptracer23_sd         =   8.5628927189578E-04
(PID.TID 0000.0001) %MON trcstat_ptracer23_del2       =   1.9991319534609E-07
(PID.TID 0000.0001) %MON trcstat_ptracer24_max        =   1.5816044506759E-01
(PID.TID 0000.0001) %MON trcstat_ptracer24_min        =  -5.3691888036111E-02
(PID.TID 0000.0001) %MON trcstat_ptracer24_mean       =   4.3751485795998E-05
(PID.TID 0000.0001) %MON trcstat_ptracer24_sd         =   6.3607543239062E-04
(PID.TID 0000.0001) %MON trcstat_ptracer24_del2       =   1.2185496421625E-07
(PID.TID 0000.0001) %MON trcstat_ptracer25_max        =   3.4486311177233E-03
(PID.TID 0000.0001) %MON trcstat_ptracer25_min        =  -1.2271954046720E-03
(PID.TID 0000.0001) %MON trcstat_ptracer25_mean       =   7.7892339774795E-08
(PID.TID 0000.0001) %MON trcstat_ptracer25_sd         =   1.2314706638608E-05
(PID.TID 0000.0001) %MON trcstat_ptracer25_del2       =   1.2687125784105E-09
(PID.TID 0000.0001) %MON trcstat_ptracer26_max        =   2.8033951773380E-02
(PID.TID 0000.0001) %MON trcstat_ptracer26_min        =  -4.7744820761984E-03
(PID.TID 0000.0001) %MON trcstat_ptracer26_mean       =   9.8201656086513E-05
(PID.TID 0000.0001) %MON trcstat_ptracer26_sd         =   8.8251282450891E-04
(PID.TID 0000.0001) %MON trcstat_ptracer26_del2       =   5.4095329949039E-08
(PID.TID 0000.0001) %MON trcstat_ptracer27_max        =   3.1882969835465E+01
(PID.TID 0000.0001) %MON trcstat_ptracer27_min        =  -1.3867172298537E+00
(PID.TID 0000.0001) %MON trcstat_ptracer27_mean       =   4.3875894676074E-03
(PID.TID 0000.0001) %MON trcstat_ptracer27_sd         =   6.3203454640118E-02
(PID.TID 0000.0001) %MON trcstat_ptracer27_del2       =   1.2132506615602E-05
(PID.TID 0000.0001) %MON trcstat_ptracer28_max        =   8.6736191405108E+01
(PID.TID 0000.0001) %MON trcstat_ptracer28_min        =  -1.2126553228707E+00
(PID.TID 0000.0001) %MON trcstat_ptracer28_mean       =   3.1036712535911E-03
(PID.TID 0000.0001) %MON trcstat_ptracer28_sd         =   9.8354616522440E-02
(PID.TID 0000.0001) %MON trcstat_ptracer28_del2       =   1.3227282462936E-05
(PID.TID 0000.0001) %MON trcstat_ptracer29_max        =   4.6959920531575E+01
(PID.TID 0000.0001) %MON trcstat_ptracer29_min        =  -4.7379859196872E-01
(PID.TID 0000.0001) %MON trcstat_ptracer29_mean       =   5.3742279439469E-04
(PID.TID 0000.0001) %MON trcstat_ptracer29_sd         =   1.3420725644010E-02
(PID.TID 0000.0001) %MON trcstat_ptracer29_del2       =   7.4720340783610E-06
(PID.TID 0000.0001) %MON trcstat_ptracer30_max        =   1.1147046012845E-02
(PID.TID 0000.0001) %MON trcstat_ptracer30_min        =  -7.0099895554815E-03
(PID.TID 0000.0001) %MON trcstat_ptracer30_mean       =   2.7565880798826E-07
(PID.TID 0000.0001) %MON trcstat_ptracer30_sd         =   5.1493545425982E-05
(PID.TID 0000.0001) %MON trcstat_ptracer30_del2       =   4.7740247642832E-09
(PID.TID 0000.0001) %MON trcstat_ptracer31_max        =   3.8815199528921E+02
(PID.TID 0000.0001) %MON trcstat_ptracer31_min        =  -8.2135665643590E-01
(PID.TID 0000.0001) %MON trcstat_ptracer31_mean       =   1.4379367122521E-01
(PID.TID 0000.0001) %MON trcstat_ptracer31_sd         =   4.1169543708553E+00
(PID.TID 0000.0001) %MON trcstat_ptracer31_del2       =   1.0469566901897E-04
(PID.TID 0000.0001) %MON trcstat_ptracer32_max        =   2.5152618115537E+03
(PID.TID 0000.0001) %MON trcstat_ptracer32_min        =   1.1680476870997E+03
(PID.TID 0000.0001) %MON trcstat_ptracer32_mean       =   2.3369472703014E+03
(PID.TID 0000.0001) %MON trcstat_ptracer32_sd         =   8.6339946569343E+01
(PID.TID 0000.0001) %MON trcstat_ptracer32_del2       =   1.3329724223784E-03
(PID.TID 0000.0001) %MON trcstat_ptracer33_max        =   1.0171741668040E+02
(PID.TID 0000.0001) %MON trcstat_ptracer33_min        =  -1.0476537801970E+01
(PID.TID 0000.0001) %MON trcstat_ptracer33_mean       =   7.1904235752355E-01
(PID.TID 0000.0001) %MON trcstat_ptracer33_sd         =   4.0450691867475E+00
(PID.TID 0000.0001) %MON trcstat_ptracer33_del2       =   1.8665227687671E-04
(PID.TID 0000.0001) %MON trcstat_ptracer34_max        =   7.4939635623122E+02
(PID.TID 0000.0001) %MON trcstat_ptracer34_min        =  -7.0738223668080E-01
(PID.TID 0000.0001) %MON trcstat_ptracer34_mean       =   1.5705071758806E-01
(PID.TID 0000.0001) %MON trcstat_ptracer34_sd         =   4.3337306806187E-01
(PID.TID 0000.0001) %MON trcstat_ptracer34_del2       =   1.9476754930989E-04
(PID.TID 0000.0001) %MON trcstat_ptracer35_max        =   1.3813287808870E+02
(PID.TID 0000.0001) %MON trcstat_ptracer35_min        =  -6.6636309577619E-02
(PID.TID 0000.0001) %MON trcstat_ptracer35_mean       =   1.4846641472190E-02
(PID.TID 0000.0001) %MON trcstat_ptracer35_sd         =   6.8881099315692E-02
(PID.TID 0000.0001) %MON trcstat_ptracer35_del2       =   3.1335418751486E-05
(PID.TID 0000.0001) %MON trcstat_ptracer36_max        =   2.7528450846389E+03
(PID.TID 0000.0001) %MON trcstat_ptracer36_min        =   1.1481814506716E+03
(PID.TID 0000.0001) %MON trcstat_ptracer36_mean       =   2.4479561295592E+03
(PID.TID 0000.0001) %MON trcstat_ptracer36_sd         =   5.6910373177158E+01
(PID.TID 0000.0001) %MON trcstat_ptracer36_del2       =   9.9012194714352E-04
(PID.TID 0000.0001) %MON trcstat_ptracer37_max        =   4.9179790724601E+02
(PID.TID 0000.0001) %MON trcstat_ptracer37_min        =  -8.8670045790008E+01
(PID.TID 0000.0001) %MON trcstat_ptracer37_mean       =   1.7828540230825E+02
(PID.TID 0000.0001) %MON trcstat_ptracer37_sd         =   6.6691440180005E+01
(PID.TID 0000.0001) %MON trcstat_ptracer37_del2       =   1.4114921210883E-03
(PID.TID 0000.0001) %MON trcstat_ptracer38_max        =   6.8258135216106E+00
(PID.TID 0000.0001) %MON trcstat_ptracer38_min        =  -1.3668985093881E+00
(PID.TID 0000.0001) %MON trcstat_ptracer38_mean       =   4.1685824415730E-03
(PID.TID 0000.0001) %MON trcstat_ptracer38_sd         =   6.4228118412317E-02
(PID.TID 0000.0001) %MON trcstat_ptracer38_del2       =   5.1481149179692E-06
(PID.TID 0000.0001) %MON trcstat_ptracer39_max        =   2.6798210239225E+01
(PID.TID 0000.0001) %MON trcstat_ptracer39_min        =  -4.7334661777084E+00
(PID.TID 0000.0001) %MON trcstat_ptracer39_mean       =   8.9239574560561E-03
(PID.TID 0000.0001) %MON trcstat_ptracer39_sd         =   1.5867666393943E-01
(PID.TID 0000.0001) %MON trcstat_ptracer39_del2       =   1.7795516492325E-05
(PID.TID 0000.0001) // =======================================================
(PID.TID 0000.0001) // End MONITOR ptracers field statistics
(PID.TID 0000.0001) // =======================================================
(PID.TID 0000.0001) // =======================================================
(PID.TID 0000.0001) // Begin MONITOR EXF statistics
(PID.TID 0000.0001) // =======================================================
(PID.TID 0000.0001) %MON exf_tsnumber                 =                     2
(PID.TID 0000.0001) %MON exf_time_sec                 =   2.4000000000000E+03
(PID.TID 0000.0001) %MON exf_ustress_max              =   2.2265341822899E+00
(PID.TID 0000.0001) %MON exf_ustress_min              =  -1.2619578071106E+00
(PID.TID 0000.0001) %MON exf_ustress_mean             =   1.1474650667404E-02
(PID.TID 0000.0001) %MON exf_ustress_sd               =   1.0715468212509E-01
(PID.TID 0000.0001) %MON exf_ustress_del2             =   6.2681897918757E-06
(PID.TID 0000.0001) %MON exf_vstress_max              =   1.6668102887068E+00
(PID.TID 0000.0001) %MON exf_vstress_min              =  -1.3960167843448E+00
(PID.TID 0000.0001) %MON exf_vstress_mean             =   3.0346387042221E-03
(PID.TID 0000.0001) %MON exf_vstress_sd               =   9.9426081319411E-02
(PID.TID 0000.0001) %MON exf_vstress_del2             =   5.6173503110507E-06
(PID.TID 0000.0001) %MON exf_hflux_max                =   1.1115727566495E+03
(PID.TID 0000.0001) %MON exf_hflux_min                =  -5.9496269441521E+02
(PID.TID 0000.0001) %MON exf_hflux_mean               =  -7.4884511105860E+00
(PID.TID 0000.0001) %MON exf_hflux_sd                 =   2.2580029433112E+02
(PID.TID 0000.0001) %MON exf_hflux_del2               =   1.2956380071187E-01
(PID.TID 0000.0001) %MON exf_sflux_max                =   2.5846789060409E-07
(PID.TID 0000.0001) %MON exf_sflux_min                =  -2.1321653893850E-06
(PID.TID 0000.0001) %MON exf_sflux_mean               =   6.1936907990108E-09
(PID.TID 0000.0001) %MON exf_sflux_sd                 =   8.0357403053352E-08
(PID.TID 0000.0001) %MON exf_sflux_del2               =   3.9379375180228E-11
(PID.TID 0000.0001) %MON exf_uwind_max                =   2.7025410226223E+01
(PID.TID 0000.0001) %MON exf_uwind_min                =  -2.1772642165142E+01
(PID.TID 0000.0001) %MON exf_uwind_mean               =   2.5068079827577E-01
(PID.TID 0000.0001) %MON exf_uwind_sd                 =   5.4311354249774E+00
(PID.TID 0000.0001) %MON exf_uwind_del2               =   1.8288146267241E-04
(PID.TID 0000.0001) %MON exf_vwind_max                =   2.5159744950487E+01
(PID.TID 0000.0001) %MON exf_vwind_min                =  -1.8046774904448E+01
(PID.TID 0000.0001) %MON exf_vwind_mean               =  -3.9449686286345E-01
(PID.TID 0000.0001) %MON exf_vwind_sd                 =   5.5745350022155E+00
(PID.TID 0000.0001) %MON exf_vwind_del2               =   1.7213945453058E-04
(PID.TID 0000.0001) %MON exf_wspeed_max               =   2.8697448287298E+01
(PID.TID 0000.0001) %MON exf_wspeed_min               =   1.6786000452832E-02
(PID.TID 0000.0001) %MON exf_wspeed_mean              =   7.0689837980058E+00
(PID.TID 0000.0001) %MON exf_wspeed_sd                =   3.2894694399455E+00
(PID.TID 0000.0001) %MON exf_wspeed_del2              =   4.0606909339272E-03
(PID.TID 0000.0001) %MON exf_atemp_max                =   3.0517137441387E+02
(PID.TID 0000.0001) %MON exf_atemp_min                =   2.2911768204464E+02
(PID.TID 0000.0001) %MON exf_atemp_mean               =   2.8928376949649E+02
(PID.TID 0000.0001) %MON exf_atemp_sd                 =   1.2292687866409E+01
(PID.TID 0000.0001) %MON exf_atemp_del2               =   8.6143659996659E-03
(PID.TID 0000.0001) %MON exf_aqh_max                  =   2.2168079979366E-02
(PID.TID 0000.0001) %MON exf_aqh_min                  =   8.1290678257561E-05
(PID.TID 0000.0001) %MON exf_aqh_mean                 =   1.1039047094387E-02
(PID.TID 0000.0001) %MON exf_aqh_sd                   =   5.7212849376805E-03
(PID.TID 0000.0001) %MON exf_aqh_del2                 =   4.8008543976202E-06
(PID.TID 0000.0001) %MON exf_lwflux_max               =   2.0791044494951E+02
(PID.TID 0000.0001) %MON exf_lwflux_min               =  -1.5959826553117E+01
(PID.TID 0000.0001) %MON exf_lwflux_mean              =   5.1708833337506E+01
(PID.TID 0000.0001) %MON exf_lwflux_sd                =   2.8823268735655E+01
(PID.TID 0000.0001) %MON exf_lwflux_del2              =   3.3070427306147E-02
(PID.TID 0000.0001) %MON exf_evap_max                 =   2.6468836697891E-07
(PID.TID 0000.0001) %MON exf_evap_min                 =  -2.2118338849734E-08
(PID.TID 0000.0001) %MON exf_evap_mean                =   4.5036250191266E-08
(PID.TID 0000.0001) %MON exf_evap_sd                  =   2.9794575058915E-08
(PID.TID 0000.0001) %MON exf_evap_del2                =   2.2983679826004E-11
(PID.TID 0000.0001) %MON exf_precip_max               =   1.3503322036975E-06
(PID.TID 0000.0001) %MON exf_precip_min               =  -2.0420374255440E-09
(PID.TID 0000.0001) %MON exf_precip_mean              =   3.5798633217791E-08
(PID.TID 0000.0001) %MON exf_precip_sd                =   6.8990358721546E-08
(PID.TID 0000.0001) %MON exf_precip_del2              =   3.6574404520710E-11
(PID.TID 0000.0001) %MON exf_swflux_max               =   7.4782448912990E+00
(PID.TID 0000.0001) %MON exf_swflux_min               =  -6.9118000070071E+02
(PID.TID 0000.0001) %MON exf_swflux_mean              =  -2.0035759094140E+02
(PID.TID 0000.0001) %MON exf_swflux_sd                =   1.7244291646386E+02
(PID.TID 0000.0001) %MON exf_swflux_del2              =   1.2095702737253E-01
(PID.TID 0000.0001) %MON exf_swdown_max               =   7.4546946285305E+02
(PID.TID 0000.0001) %MON exf_swdown_min               =  -8.0632062580759E+00
(PID.TID 0000.0001) %MON exf_swdown_mean              =   2.1725298211317E+02
(PID.TID 0000.0001) %MON exf_swdown_sd                =   1.8627757306771E+02
(PID.TID 0000.0001) %MON exf_swdown_del2              =   1.3133453816609E-01
(PID.TID 0000.0001) %MON exf_lwdown_max               =   4.5774668371428E+02
(PID.TID 0000.0001) %MON exf_lwdown_min               =   9.2664725507019E+01
(PID.TID 0000.0001) %MON exf_lwdown_mean              =   3.6010749772141E+02
(PID.TID 0000.0001) %MON exf_lwdown_sd                =   6.4885269741572E+01
(PID.TID 0000.0001) %MON exf_lwdown_del2              =   1.6259681144822E-01
(PID.TID 0000.0001) %MON exf_runoff_max               =   2.1969982817919E-06
(PID.TID 0000.0001) %MON exf_runoff_min               =   0.0000000000000E+00
(PID.TID 0000.0001) %MON exf_runoff_mean              =   3.0439261744650E-09
(PID.TID 0000.0001) %MON exf_runoff_sd                =   2.3392756258697E-08
(PID.TID 0000.0001) %MON exf_runoff_del2              =   1.4545124708231E-11
(PID.TID 0000.0001) %MON exf_apco2_max                =   3.6150800072577E-04
(PID.TID 0000.0001) %MON exf_apco2_min                =   3.5358177591853E-04
(PID.TID 0000.0001) %MON exf_apco2_mean               =   3.5574477028567E-04
(PID.TID 0000.0001) %MON exf_apco2_sd                 =   2.1002939348146E-06
(PID.TID 0000.0001) %MON exf_apco2_del2               =   1.7447588399114E-07
(PID.TID 0000.0001) // =======================================================
(PID.TID 0000.0001) // End MONITOR EXF statistics
(PID.TID 0000.0001) // =======================================================
 SEAICE_LSR: Residual Initial ipass,Uice,Vice=    1  8.17115602E-02  1.43476172E-01
 SEAICE_LSR: Residual FrDrift U_fd,V_fd=  4.98444063E+02  6.35370629E+02
 SEAICE_LSR (ipass=   1) iters,dU,Resid=    82  1.94781392E-04  7.38119320E-03
 SEAICE_LSR (ipass=   1) iters,dV,Resid=    82  9.52615508E-05  8.19857548E-03
 SEAICE_LSR: Residual Initial ipass,Uice,Vice=    2  5.09060803E-01  3.72841409E-01
 SEAICE_LSR: Residual FrDrift U_fd,V_fd=  4.98427628E+02  6.35362068E+02
 SEAICE_LSR (ipass=   2) iters,dU,Resid=    50  1.98329477E-04  7.20381592E-03
 SEAICE_LSR (ipass=   2) iters,dV,Resid=    50  1.11257141E-04  8.39696369E-03
 cg2d: Sum(rhs),rhsMax =  -9.66531264641623E+02  5.90677377099229E-02
(PID.TID 0000.0001)      cg2d_init_res =   4.15353316688769E-01
(PID.TID 0000.0001)      cg2d_iters(min,last) =      -1      97
(PID.TID 0000.0001)      cg2d_last_res =   4.27686060644956E-05
(PID.TID 0000.0001) // =======================================================
(PID.TID 0000.0001) // Begin MONITOR dynamic field statistics
(PID.TID 0000.0001) // =======================================================
(PID.TID 0000.0001) %MON time_tsnumber                =                     3
(PID.TID 0000.0001) %MON time_secondsf                =   3.6000000000000E+03
(PID.TID 0000.0001) %MON dynstat_eta_max              =   1.1668809512710E+00
(PID.TID 0000.0001) %MON dynstat_eta_min              =  -5.5823616793574E+00
(PID.TID 0000.0001) %MON dynstat_eta_mean             =   4.4828854213397E-02
(PID.TID 0000.0001) %MON dynstat_eta_sd               =   7.9648557592345E-01
(PID.TID 0000.0001) %MON dynstat_eta_del2             =   3.5056138459410E-05
(PID.TID 0000.0001) %MON dynstat_uvel_max             =   1.4834997060989E+00
(PID.TID 0000.0001) %MON dynstat_uvel_min             =  -9.4705346708735E-01
(PID.TID 0000.0001) %MON dynstat_uvel_mean            =   1.1652864686124E-03
(PID.TID 0000.0001) %MON dynstat_uvel_sd              =   2.4397396692971E-02
(PID.TID 0000.0001) %MON dynstat_uvel_del2            =   3.0260197307904E-06
(PID.TID 0000.0001) %MON dynstat_vvel_max             =   1.4410764796298E+00
(PID.TID 0000.0001) %MON dynstat_vvel_min             =  -1.4710874422598E+00
(PID.TID 0000.0001) %MON dynstat_vvel_mean            =   1.0221449148808E-03
(PID.TID 0000.0001) %MON dynstat_vvel_sd              =   2.6999805219774E-02
(PID.TID 0000.0001) %MON dynstat_vvel_del2            =   3.0075408726369E-06
(PID.TID 0000.0001) %MON dynstat_wvel_max             =   3.5079831235873E-03
(PID.TID 0000.0001) %MON dynstat_wvel_min             =  -6.3710459583930E-03
(PID.TID 0000.0001) %MON dynstat_wvel_mean            =  -5.2836207265623E-09
(PID.TID 0000.0001) %MON dynstat_wvel_sd              =   6.8759936383338E-05
(PID.TID 0000.0001) %MON dynstat_wvel_del2            =   1.5944092935864E-08
(PID.TID 0000.0001) %MON dynstat_theta_max            =   3.3016089059838E+01
(PID.TID 0000.0001) %MON dynstat_theta_min            =  -2.0000298434071E+00
(PID.TID 0000.0001) %MON dynstat_theta_mean           =   3.5847769313558E+00
(PID.TID 0000.0001) %MON dynstat_theta_sd             =   4.4307850706522E+00
(PID.TID 0000.0001) %MON dynstat_theta_del2           =   1.5806091941464E-05
(PID.TID 0000.0001) %MON dynstat_salt_max             =   4.1000280392433E+01
(PID.TID 0000.0001) %MON dynstat_salt_min             =   2.8989057456035E+01
(PID.TID 0000.0001) %MON dynstat_salt_mean            =   3.4727079254686E+01
(PID.TID 0000.0001) %MON dynstat_salt_sd              =   3.8902281844686E-01
(PID.TID 0000.0001) %MON dynstat_salt_del2            =   4.6785268468688E-06
(PID.TID 0000.0001) %MON dynstat_sst_max              =   3.3016089059838E+01
(PID.TID 0000.0001) %MON dynstat_sst_min              =  -1.9625983556111E+00
(PID.TID 0000.0001) %MON dynstat_sst_mean             =   1.8546961170262E+01
(PID.TID 0000.0001) %MON dynstat_sst_sd               =   1.0127859672229E+01
(PID.TID 0000.0001) %MON dynstat_sst_del2             =   1.6901668917642E-04
(PID.TID 0000.0001) %MON dynstat_sss_max              =   4.1000280392433E+01
(PID.TID 0000.0001) %MON dynstat_sss_min              =   2.8989057456035E+01
(PID.TID 0000.0001) %MON dynstat_sss_mean             =   3.4555354238827E+01
(PID.TID 0000.0001) %MON dynstat_sss_sd               =   1.3640877091708E+00
(PID.TID 0000.0001) %MON dynstat_sss_del2             =   7.8482503955813E-05
(PID.TID 0000.0001) %MON forcing_qnet_max             =   8.6952972920909E+02
(PID.TID 0000.0001) %MON forcing_qnet_min             =  -1.3529579819972E+03
(PID.TID 0000.0001) %MON forcing_qnet_mean            =  -2.1567415375225E+01
(PID.TID 0000.0001) %MON forcing_qnet_sd              =   2.0058092881839E+02
(PID.TID 0000.0001) %MON forcing_qnet_del2            =   2.6259559189329E-02
(PID.TID 0000.0001) %MON forcing_qsw_max              =   7.4782448912990E+00
(PID.TID 0000.0001) %MON forcing_qsw_min              =  -6.9118000070071E+02
(PID.TID 0000.0001) %MON forcing_qsw_mean             =  -1.9800298610460E+02
(PID.TID 0000.0001) %MON forcing_qsw_sd               =   1.7242506942182E+02
(PID.TID 0000.0001) %MON forcing_qsw_del2             =   8.3534186912259E-03
(PID.TID 0000.0001) %MON forcing_empmr_max            =   3.5127966392568E-03
(PID.TID 0000.0001) %MON forcing_empmr_min            =  -2.1321653893850E-03
(PID.TID 0000.0001) %MON forcing_empmr_mean           =   3.7023762976123E-06
(PID.TID 0000.0001) %MON forcing_empmr_sd             =   9.8715696297724E-05
(PID.TID 0000.0001) %MON forcing_empmr_del2           =   7.8571034898368E-08
(PID.TID 0000.0001) %MON forcing_fu_max               =   2.0000000000000E+00
(PID.TID 0000.0001) %MON forcing_fu_min               =  -7.2483662830571E-01
(PID.TID 0000.0001) %MON forcing_fu_mean              =   1.1446214997089E-02
(PID.TID 0000.0001) %MON forcing_fu_sd                =   1.0730831152930E-01
(PID.TID 0000.0001) %MON forcing_fu_del2              =   9.7427023423640E-06
(PID.TID 0000.0001) %MON forcing_fv_max               =   1.6279849390261E+00
(PID.TID 0000.0001) %MON forcing_fv_min               =  -1.3858186773108E+00
(PID.TID 0000.0001) %MON forcing_fv_mean              =   2.8034871510417E-03
(PID.TID 0000.0001) %MON forcing_fv_sd                =   9.9109949307546E-02
(PID.TID 0000.0001) %MON forcing_fv_del2              =   8.9488737944639E-06
(PID.TID 0000.0001) %MON trAdv_CFL_u_max              =   1.0044017266528E-01
(PID.TID 0000.0001) %MON trAdv_CFL_v_max              =   6.0411783553546E-02
(PID.TID 0000.0001) %MON trAdv_CFL_w_max              =   2.7749158142759E-01
(PID.TID 0000.0001) %MON advcfl_uvel_max              =   1.0028772419345E-01
(PID.TID 0000.0001) %MON advcfl_vvel_max              =   5.9225197049680E-02
(PID.TID 0000.0001) %MON advcfl_wvel_max              =   2.7124225234172E-01
(PID.TID 0000.0001) %MON advcfl_W_hf_max              =   2.7911215726676E-01
(PID.TID 0000.0001) %MON pe_b_mean                    =   3.0732933918792E-04
(PID.TID 0000.0001) %MON ke_max                       =   1.0432709478479E+00
(PID.TID 0000.0001) %MON ke_mean                      =   6.4755663554339E-04
(PID.TID 0000.0001) %MON ke_vol                       =   1.3346996871268E+18
(PID.TID 0000.0001) %MON vort_r_min                   =  -1.0438049088031E-04
(PID.TID 0000.0001) %MON vort_r_max                   =   8.2738250179936E-05
(PID.TID 0000.0001) %MON vort_a_mean                  =  -1.9771265317094E-05
(PID.TID 0000.0001) %MON vort_a_sd                    =   7.4554643270276E-05
(PID.TID 0000.0001) %MON vort_p_mean                  =  -2.1179978019001E-05
(PID.TID 0000.0001) %MON vort_p_sd                    =   8.8323317440125E-05
(PID.TID 0000.0001) %MON surfExpan_theta_mean         =  -1.2197712889996E-07
(PID.TID 0000.0001) %MON surfExpan_salt_mean          =   1.6321844960573E-08
(PID.TID 0000.0001) // =======================================================
(PID.TID 0000.0001) // End MONITOR dynamic field statistics
(PID.TID 0000.0001) // =======================================================
(PID.TID 0000.0001) // =======================================================
(PID.TID 0000.0001) // Begin MONITOR SEAICE statistics
(PID.TID 0000.0001) // =======================================================
(PID.TID 0000.0001) %MON seaice_tsnumber              =                     3
(PID.TID 0000.0001) %MON seaice_time_sec              =   3.6000000000000E+03
(PID.TID 0000.0001) %MON seaice_uice_max              =   4.0000000000000E-01
(PID.TID 0000.0001) %MON seaice_uice_min              =  -4.0000000000000E-01
(PID.TID 0000.0001) %MON seaice_uice_mean             =   4.8010531741281E-04
(PID.TID 0000.0001) %MON seaice_uice_sd               =   1.8156576249324E-01
(PID.TID 0000.0001) %MON seaice_uice_del2             =   3.2076673525890E-05
(PID.TID 0000.0001) %MON seaice_vice_max              =   4.0000000000000E-01
(PID.TID 0000.0001) %MON seaice_vice_min              =  -4.0000000000000E-01
(PID.TID 0000.0001) %MON seaice_vice_mean             =  -1.8467025997734E-03
(PID.TID 0000.0001) %MON seaice_vice_sd               =   1.8168260876911E-01
(PID.TID 0000.0001) %MON seaice_vice_del2             =   3.3019373295204E-05
(PID.TID 0000.0001) %MON seaice_area_max              =   9.5000000000000E-01
(PID.TID 0000.0001) %MON seaice_area_min              =   0.0000000000000E+00
(PID.TID 0000.0001) %MON seaice_area_mean             =   4.7744888697670E-02
(PID.TID 0000.0001) %MON seaice_area_sd               =   1.9561701197026E-01
(PID.TID 0000.0001) %MON seaice_area_del2             =   4.2431302992301E-05
(PID.TID 0000.0001) %MON seaice_heff_max              =   5.7659469358732E+00
(PID.TID 0000.0001) %MON seaice_heff_min              =   0.0000000000000E+00
(PID.TID 0000.0001) %MON seaice_heff_mean             =   8.3071571145448E-02
(PID.TID 0000.0001) %MON seaice_heff_sd               =   4.3473372686846E-01
(PID.TID 0000.0001) %MON seaice_heff_del2             =   3.7476177099185E-05
(PID.TID 0000.0001) %MON seaice_hsnow_max             =   8.5174050000869E-01
(PID.TID 0000.0001) %MON seaice_hsnow_min             =  -2.7176380688990E-07
(PID.TID 0000.0001) %MON seaice_hsnow_mean            =   5.2331325388730E-03
(PID.TID 0000.0001) %MON seaice_hsnow_sd              =   2.9417103047444E-02
(PID.TID 0000.0001) %MON seaice_hsnow_del2            =   4.7062610312252E-06
(PID.TID 0000.0001) // =======================================================
(PID.TID 0000.0001) // End MONITOR SEAICE statistics
(PID.TID 0000.0001) // =======================================================
(PID.TID 0000.0001) // =======================================================
(PID.TID 0000.0001) // Begin MONITOR ptracer field statistics
(PID.TID 0000.0001) // =======================================================
(PID.TID 0000.0001) %MON trcstat_ptracer01_max        =   4.0374111425693E+00
(PID.TID 0000.0001) %MON trcstat_ptracer01_min        =  -9.3702572605692E-01
(PID.TID 0000.0001) %MON trcstat_ptracer01_mean       =   2.2269002179780E+00
(PID.TID 0000.0001) %MON trcstat_ptracer01_sd         =   6.6877822760559E-01
(PID.TID 0000.0001) %MON trcstat_ptracer01_del2       =   1.3051939942929E-05
(PID.TID 0000.0001) %MON trcstat_ptracer02_max        =   5.7725631759952E+01
(PID.TID 0000.0001) %MON trcstat_ptracer02_min        =  -7.0186380092621E+00
(PID.TID 0000.0001) %MON trcstat_ptracer02_mean       =   3.1702733936340E+01
(PID.TID 0000.0001) %MON trcstat_ptracer02_sd         =   9.3866381422228E+00
(PID.TID 0000.0001) %MON trcstat_ptracer02_del2       =   1.9280116721247E-04
(PID.TID 0000.0001) %MON trcstat_ptracer03_max        =   1.0955119775357E-03
(PID.TID 0000.0001) %MON trcstat_ptracer03_min        =  -1.4457094263373E-04
(PID.TID 0000.0001) %MON trcstat_ptracer03_mean       =   5.5046325079176E-04
(PID.TID 0000.0001) %MON trcstat_ptracer03_sd         =   1.2604096461087E-04
(PID.TID 0000.0001) %MON trcstat_ptracer03_del2       =   4.3796496543663E-09
(PID.TID 0000.0001) %MON trcstat_ptracer04_max        =   2.5507920824674E+02
(PID.TID 0000.0001) %MON trcstat_ptracer04_min        =  -3.6564928930213E+01
(PID.TID 0000.0001) %MON trcstat_ptracer04_mean       =   9.0903066853250E+01
(PID.TID 0000.0001) %MON trcstat_ptracer04_sd         =   5.3320601080314E+01
(PID.TID 0000.0001) %MON trcstat_ptracer04_del2       =   5.3258999947078E-04
(PID.TID 0000.0001) %MON trcstat_ptracer05_max        =   6.0384258345184E-01
(PID.TID 0000.0001) %MON trcstat_ptracer05_min        =  -5.5170374795941E-02
(PID.TID 0000.0001) %MON trcstat_ptracer05_mean       =   3.0289316337677E-03
(PID.TID 0000.0001) %MON trcstat_ptracer05_sd         =   1.9511542818049E-02
(PID.TID 0000.0001) %MON trcstat_ptracer05_del2       =   1.0288177951290E-06
(PID.TID 0000.0001) %MON trcstat_ptracer06_max        =   9.6614813352294E+00
(PID.TID 0000.0001) %MON trcstat_ptracer06_min        =  -8.8272599673828E-01
(PID.TID 0000.0001) %MON trcstat_ptracer06_mean       =   4.8462906140282E-02
(PID.TID 0000.0001) %MON trcstat_ptracer06_sd         =   3.1218468508877E-01
(PID.TID 0000.0001) %MON trcstat_ptracer06_del2       =   1.6461084722064E-05
(PID.TID 0000.0001) %MON trcstat_ptracer07_max        =   6.0384258345184E-04
(PID.TID 0000.0001) %MON trcstat_ptracer07_min        =  -5.5170374796175E-05
(PID.TID 0000.0001) %MON trcstat_ptracer07_mean       =   3.0289316337679E-06
(PID.TID 0000.0001) %MON trcstat_ptracer07_sd         =   1.9511542818050E-05
(PID.TID 0000.0001) %MON trcstat_ptracer07_del2       =   1.0288177951287E-09
(PID.TID 0000.0001) %MON trcstat_ptracer08_max        =   5.6884215050004E-02
(PID.TID 0000.0001) %MON trcstat_ptracer08_min        =  -1.1388404008408E-02
(PID.TID 0000.0001) %MON trcstat_ptracer08_mean       =   3.4738926194340E-05
(PID.TID 0000.0001) %MON trcstat_ptracer08_sd         =   5.3516950463965E-04
(PID.TID 0000.0001) %MON trcstat_ptracer08_del2       =   4.2746088501638E-08
(PID.TID 0000.0001) %MON trcstat_ptracer09_max        =   9.1014744080005E-01
(PID.TID 0000.0001) %MON trcstat_ptracer09_min        =  -1.8221446413452E-01
(PID.TID 0000.0001) %MON trcstat_ptracer09_mean       =   5.5582281911089E-04
(PID.TID 0000.0001) %MON trcstat_ptracer09_sd         =   8.5627120742240E-03
(PID.TID 0000.0001) %MON trcstat_ptracer09_del2       =   6.8393741607743E-07
(PID.TID 0000.0001) %MON trcstat_ptracer10_max        =   5.6884215050034E-05
(PID.TID 0000.0001) %MON trcstat_ptracer10_min        =  -1.1388404008407E-05
(PID.TID 0000.0001) %MON trcstat_ptracer10_mean       =   3.4738926194469E-08
(PID.TID 0000.0001) %MON trcstat_ptracer10_sd         =   5.3516950463933E-07
(PID.TID 0000.0001) %MON trcstat_ptracer10_del2       =   4.2746088500554E-11
(PID.TID 0000.0001) %MON trcstat_ptracer11_max        =   3.1006621928915E-02
(PID.TID 0000.0001) %MON trcstat_ptracer11_min        =  -3.1779616290024E-03
(PID.TID 0000.0001) %MON trcstat_ptracer11_mean       =   6.4706941292945E-06
(PID.TID 0000.0001) %MON trcstat_ptracer11_sd         =   1.4271461227130E-04
(PID.TID 0000.0001) %MON trcstat_ptracer11_del2       =   1.6495331299636E-08
(PID.TID 0000.0001) %MON trcstat_ptracer12_max        =   2.2327295217205E-01
(PID.TID 0000.0001) %MON trcstat_ptracer12_min        =  -3.9434084899968E-02
(PID.TID 0000.0001) %MON trcstat_ptracer12_mean       =   7.4365866817528E-05
(PID.TID 0000.0001) %MON trcstat_ptracer12_sd         =   1.3220849359586E-03
(PID.TID 0000.0001) %MON trcstat_ptracer12_del2       =   1.4767668640096E-07
(PID.TID 0000.0001) %MON trcstat_ptracer13_max        =   3.5723672347529E+00
(PID.TID 0000.0001) %MON trcstat_ptracer13_min        =  -6.3094535839949E-01
(PID.TID 0000.0001) %MON trcstat_ptracer13_mean       =   1.1898538690793E-03
(PID.TID 0000.0001) %MON trcstat_ptracer13_sd         =   2.1153358975327E-02
(PID.TID 0000.0001) %MON trcstat_ptracer13_del2       =   2.3628269821727E-06
(PID.TID 0000.0001) %MON trcstat_ptracer14_max        =   2.2327295217205E-04
(PID.TID 0000.0001) %MON trcstat_ptracer14_min        =  -3.9434084899968E-05
(PID.TID 0000.0001) %MON trcstat_ptracer14_mean       =   7.4365866817210E-08
(PID.TID 0000.0001) %MON trcstat_ptracer14_sd         =   1.3220849359573E-06
(PID.TID 0000.0001) %MON trcstat_ptracer14_del2       =   1.4767668639513E-10
(PID.TID 0000.0001) %MON trcstat_ptracer15_max        =   1.2661987601745E+00
(PID.TID 0000.0001) %MON trcstat_ptracer15_min        =  -1.8573912684264E-01
(PID.TID 0000.0001) %MON trcstat_ptracer15_mean       =   5.3931805304168E-04
(PID.TID 0000.0001) %MON trcstat_ptracer15_sd         =   9.9301987611858E-03
(PID.TID 0000.0001) %MON trcstat_ptracer15_del2       =   1.1033708364129E-06
(PID.TID 0000.0001) %MON trcstat_ptracer16_max        =   2.8257758621540E+00
(PID.TID 0000.0001) %MON trcstat_ptracer16_min        =  -5.7181427288056E-03
(PID.TID 0000.0001) %MON trcstat_ptracer16_mean       =   6.6541882824304E-04
(PID.TID 0000.0001) %MON trcstat_ptracer16_sd         =   2.1501101657673E-03
(PID.TID 0000.0001) %MON trcstat_ptracer16_del2       =   8.4026254363448E-07
(PID.TID 0000.0001) %MON trcstat_ptracer17_max        =   4.5212413794464E+01
(PID.TID 0000.0001) %MON trcstat_ptracer17_min        =  -9.1490283660889E-02
(PID.TID 0000.0001) %MON trcstat_ptracer17_mean       =   1.0646701251889E-02
(PID.TID 0000.0001) %MON trcstat_ptracer17_sd         =   3.4401762652254E-02
(PID.TID 0000.0001) %MON trcstat_ptracer17_del2       =   1.3444200698160E-05
(PID.TID 0000.0001) %MON trcstat_ptracer18_max        =   2.8257758621532E-03
(PID.TID 0000.0001) %MON trcstat_ptracer18_min        =  -5.7181427288056E-06
(PID.TID 0000.0001) %MON trcstat_ptracer18_mean       =   6.6541882824300E-07
(PID.TID 0000.0001) %MON trcstat_ptracer18_sd         =   2.1501101657664E-06
(PID.TID 0000.0001) %MON trcstat_ptracer18_del2       =   8.4026254363340E-10
(PID.TID 0000.0001) %MON trcstat_ptracer19_max        =   4.0117293552716E+02
(PID.TID 0000.0001) %MON trcstat_ptracer19_min        =  -3.2377847450619E-01
(PID.TID 0000.0001) %MON trcstat_ptracer19_mean       =   7.1419666481830E-02
(PID.TID 0000.0001) %MON trcstat_ptracer19_sd         =   2.1884677838534E-01
(PID.TID 0000.0001) %MON trcstat_ptracer19_del2       =   8.2257925010911E-05
(PID.TID 0000.0001) %MON trcstat_ptracer20_max        =   1.2233102253307E+00
(PID.TID 0000.0001) %MON trcstat_ptracer20_min        =  -1.1486211795243E-01
(PID.TID 0000.0001) %MON trcstat_ptracer20_mean       =   6.3506725990984E-04
(PID.TID 0000.0001) %MON trcstat_ptracer20_sd         =   5.3820692654792E-03
(PID.TID 0000.0001) %MON trcstat_ptracer20_del2       =   7.0909006867658E-07
(PID.TID 0000.0001) %MON trcstat_ptracer21_max        =   3.7982095351107E+00
(PID.TID 0000.0001) %MON trcstat_ptracer21_min        =  -2.1594602139189E-01
(PID.TID 0000.0001) %MON trcstat_ptracer21_mean       =   4.8800151826313E-03
(PID.TID 0000.0001) %MON trcstat_ptracer21_sd         =   2.9708650765562E-02
(PID.TID 0000.0001) %MON trcstat_ptracer21_del2       =   2.5329687879265E-06
(PID.TID 0000.0001) %MON trcstat_ptracer22_max        =   2.0511618185285E-01
(PID.TID 0000.0001) %MON trcstat_ptracer22_min        =  -7.2844747473233E-02
(PID.TID 0000.0001) %MON trcstat_ptracer22_mean       =   1.0679421968653E-04
(PID.TID 0000.0001) %MON trcstat_ptracer22_sd         =   1.8072996642397E-03
(PID.TID 0000.0001) %MON trcstat_ptracer22_del2       =   2.6161035541729E-07
(PID.TID 0000.0001) %MON trcstat_ptracer23_max        =   1.4317441052923E-01
(PID.TID 0000.0001) %MON trcstat_ptracer23_min        =  -4.9816668578970E-02
(PID.TID 0000.0001) %MON trcstat_ptracer23_mean       =   5.8630725293585E-05
(PID.TID 0000.0001) %MON trcstat_ptracer23_sd         =   8.5586707782894E-04
(PID.TID 0000.0001) %MON trcstat_ptracer23_del2       =   1.9748915908621E-07
(PID.TID 0000.0001) %MON trcstat_ptracer24_max        =   1.5820861145528E-01
(PID.TID 0000.0001) %MON trcstat_ptracer24_min        =  -5.3623212649299E-02
(PID.TID 0000.0001) %MON trcstat_ptracer24_mean       =   4.3752987882226E-05
(PID.TID 0000.0001) %MON trcstat_ptracer24_sd         =   6.3582360094159E-04
(PID.TID 0000.0001) %MON trcstat_ptracer24_del2       =   1.2139567708172E-07
(PID.TID 0000.0001) %MON trcstat_ptracer25_max        =   3.4442380783070E-03
(PID.TID 0000.0001) %MON trcstat_ptracer25_min        =  -1.2271098240688E-03
(PID.TID 0000.0001) %MON trcstat_ptracer25_mean       =   7.7735056491351E-08
(PID.TID 0000.0001) %MON trcstat_ptracer25_sd         =   1.2254961520761E-05
(PID.TID 0000.0001) %MON trcstat_ptracer25_del2       =   1.2697567747690E-09
(PID.TID 0000.0001) %MON trcstat_ptracer26_max        =   2.8001211084389E-02
(PID.TID 0000.0001) %MON trcstat_ptracer26_min        =  -4.7735774511050E-03
(PID.TID 0000.0001) %MON trcstat_ptracer26_mean       =   9.8215056692009E-05
(PID.TID 0000.0001) %MON trcstat_ptracer26_sd         =   8.8259650609849E-04
(PID.TID 0000.0001) %MON trcstat_ptracer26_del2       =   5.3896309394231E-08
(PID.TID 0000.0001) %MON trcstat_ptracer27_max        =   3.1419057758174E+01
(PID.TID 0000.0001) %MON trcstat_ptracer27_min        =  -1.3850830533982E+00
(PID.TID 0000.0001) %MON trcstat_ptracer27_mean       =   4.3854220481051E-03
(PID.TID 0000.0001) %MON trcstat_ptracer27_sd         =   6.3136050445548E-02
(PID.TID 0000.0001) %MON trcstat_ptracer27_del2       =   1.2015171378316E-05
(PID.TID 0000.0001) %MON trcstat_ptracer28_max        =   8.6479018386328E+01
(PID.TID 0000.0001) %MON trcstat_ptracer28_min        =  -1.1788724118347E+00
(PID.TID 0000.0001) %MON trcstat_ptracer28_mean       =   3.1010732231324E-03
(PID.TID 0000.0001) %MON trcstat_ptracer28_sd         =   9.8102988141884E-02
(PID.TID 0000.0001) %MON trcstat_ptracer28_del2       =   1.3119612093967E-05
(PID.TID 0000.0001) %MON trcstat_ptracer29_max        =   4.6699093415125E+01
(PID.TID 0000.0001) %MON trcstat_ptracer29_min        =  -4.7351210635129E-01
(PID.TID 0000.0001) %MON trcstat_ptracer29_mean       =   5.3742957586505E-04
(PID.TID 0000.0001) %MON trcstat_ptracer29_sd         =   1.3335818179165E-02
(PID.TID 0000.0001) %MON trcstat_ptracer29_del2       =   7.5122157903245E-06
(PID.TID 0000.0001) %MON trcstat_ptracer30_max        =   1.1123535269872E-02
(PID.TID 0000.0001) %MON trcstat_ptracer30_min        =  -7.0096656442846E-03
(PID.TID 0000.0001) %MON trcstat_ptracer30_mean       =   2.7554147895316E-07
(PID.TID 0000.0001) %MON trcstat_ptracer30_sd         =   5.1383186563093E-05
(PID.TID 0000.0001) %MON trcstat_ptracer30_del2       =   4.8041564112836E-09
(PID.TID 0000.0001) %MON trcstat_ptracer31_max        =   3.8733239126463E+02
(PID.TID 0000.0001) %MON trcstat_ptracer31_min        =  -8.2147049063749E-01
(PID.TID 0000.0001) %MON trcstat_ptracer31_mean       =   1.4349115383641E-01
(PID.TID 0000.0001) %MON trcstat_ptracer31_sd         =   4.1081393500979E+00
(PID.TID 0000.0001) %MON trcstat_ptracer31_del2       =   1.0496880881643E-04
(PID.TID 0000.0001) %MON trcstat_ptracer32_max        =   2.5152548949172E+03
(PID.TID 0000.0001) %MON trcstat_ptracer32_min        =   1.3959474326188E+03
(PID.TID 0000.0001) %MON trcstat_ptracer32_mean       =   2.3369472615063E+03
(PID.TID 0000.0001) %MON trcstat_ptracer32_sd         =   8.6335733030151E+01
(PID.TID 0000.0001) %MON trcstat_ptracer32_del2       =   1.3396116112616E-03
(PID.TID 0000.0001) %MON trcstat_ptracer33_max        =   1.0171303691199E+02
(PID.TID 0000.0001) %MON trcstat_ptracer33_min        =  -1.0475298743734E+01
(PID.TID 0000.0001) %MON trcstat_ptracer33_mean       =   7.1904296149321E-01
(PID.TID 0000.0001) %MON trcstat_ptracer33_sd         =   4.0438270568152E+00
(PID.TID 0000.0001) %MON trcstat_ptracer33_del2       =   1.8676075330721E-04
(PID.TID 0000.0001) %MON trcstat_ptracer34_max        =   7.4119649162285E+02
(PID.TID 0000.0001) %MON trcstat_ptracer34_min        =  -7.0678223972773E-01
(PID.TID 0000.0001) %MON trcstat_ptracer34_mean       =   1.5702499370426E-01
(PID.TID 0000.0001) %MON trcstat_ptracer34_sd         =   4.3026197416541E-01
(PID.TID 0000.0001) %MON trcstat_ptracer34_del2       =   1.9127200474527E-04
(PID.TID 0000.0001) %MON trcstat_ptracer35_max        =   1.3587593813683E+02
(PID.TID 0000.0001) %MON trcstat_ptracer35_min        =  -6.6550441263439E-02
(PID.TID 0000.0001) %MON trcstat_ptracer35_mean       =   1.4839472807585E-02
(PID.TID 0000.0001) %MON trcstat_ptracer35_sd         =   6.8074919501350E-02
(PID.TID 0000.0001) %MON trcstat_ptracer35_del2       =   3.0648556487684E-05
(PID.TID 0000.0001) %MON trcstat_ptracer36_max        =   2.7513959271031E+03
(PID.TID 0000.0001) %MON trcstat_ptracer36_min        =   1.3863074089892E+03
(PID.TID 0000.0001) %MON trcstat_ptracer36_mean       =   2.4479561330020E+03
(PID.TID 0000.0001) %MON trcstat_ptracer36_sd         =   5.6908794527879E+01
(PID.TID 0000.0001) %MON trcstat_ptracer36_del2       =   9.4820028147078E-04
(PID.TID 0000.0001) %MON trcstat_ptracer37_max        =   4.9081589352326E+02
(PID.TID 0000.0001) %MON trcstat_ptracer37_min        =  -8.8652276484693E+01
(PID.TID 0000.0001) %MON trcstat_ptracer37_mean       =   1.7828536765888E+02
(PID.TID 0000.0001) %MON trcstat_ptracer37_sd         =   6.6690278633116E+01
(PID.TID 0000.0001) %MON trcstat_ptracer37_del2       =   1.4092610509489E-03
(PID.TID 0000.0001) %MON trcstat_ptracer38_max        =   6.8261058060032E+00
(PID.TID 0000.0001) %MON trcstat_ptracer38_min        =  -1.3666084810089E+00
(PID.TID 0000.0001) %MON trcstat_ptracer38_mean       =   4.1686711433503E-03
(PID.TID 0000.0001) %MON trcstat_ptracer38_sd         =   6.4220340556431E-02
(PID.TID 0000.0001) %MON trcstat_ptracer38_del2       =   5.1295306201935E-06
(PID.TID 0000.0001) %MON trcstat_ptracer39_max        =   2.6792754260646E+01
(PID.TID 0000.0001) %MON trcstat_ptracer39_min        =  -4.7320901879962E+00
(PID.TID 0000.0001) %MON trcstat_ptracer39_mean       =   8.9239040180479E-03
(PID.TID 0000.0001) %MON trcstat_ptracer39_sd         =   1.5865019231514E-01
(PID.TID 0000.0001) %MON trcstat_ptracer39_del2       =   1.7721202367758E-05
(PID.TID 0000.0001) // =======================================================
(PID.TID 0000.0001) // End MONITOR ptracers field statistics
(PID.TID 0000.0001) // =======================================================
(PID.TID 0000.0001) // =======================================================
(PID.TID 0000.0001) // Begin MONITOR EXF statistics
(PID.TID 0000.0001) // =======================================================
(PID.TID 0000.0001) %MON exf_tsnumber                 =                     3
(PID.TID 0000.0001) %MON exf_time_sec                 =   3.6000000000000E+03
(PID.TID 0000.0001) %MON exf_ustress_max              =   2.0861671057396E+00
(PID.TID 0000.0001) %MON exf_ustress_min              =  -1.2697973782557E+00
(PID.TID 0000.0001) %MON exf_ustress_mean             =   1.1358772621000E-02
(PID.TID 0000.0001) %MON exf_ustress_sd               =   1.0486179286979E-01
(PID.TID 0000.0001) %MON exf_ustress_del2             =   5.8717241882206E-06
(PID.TID 0000.0001) %MON exf_vstress_max              =   1.4176852127472E+00
(PID.TID 0000.0001) %MON exf_vstress_min              =  -1.2133196702208E+00
(PID.TID 0000.0001) %MON exf_vstress_mean             =   2.8950050059127E-03
(PID.TID 0000.0001) %MON exf_vstress_sd               =   9.7024324818888E-02
(PID.TID 0000.0001) %MON exf_vstress_del2             =   5.1403412245925E-06
(PID.TID 0000.0001) %MON exf_hflux_max                =   1.1058520996364E+03
(PID.TID 0000.0001) %MON exf_hflux_min                =  -6.1924680137262E+02
(PID.TID 0000.0001) %MON exf_hflux_mean               =  -6.9566846759453E+00
(PID.TID 0000.0001) %MON exf_hflux_sd                 =   2.2738778988047E+02
(PID.TID 0000.0001) %MON exf_hflux_del2               =   1.2989180964565E-01
(PID.TID 0000.0001) %MON exf_sflux_max                =   2.5601903042745E-07
(PID.TID 0000.0001) %MON exf_sflux_min                =  -2.1342011512529E-06
(PID.TID 0000.0001) %MON exf_sflux_mean               =   6.2315602052192E-09
(PID.TID 0000.0001) %MON exf_sflux_sd                 =   8.0492845332058E-08
(PID.TID 0000.0001) %MON exf_sflux_del2               =   3.9386544668974E-11
(PID.TID 0000.0001) %MON exf_uwind_max                =   2.6569219693832E+01
(PID.TID 0000.0001) %MON exf_uwind_min                =  -2.1809341300549E+01
(PID.TID 0000.0001) %MON exf_uwind_mean               =   2.5387280986536E-01
(PID.TID 0000.0001) %MON exf_uwind_sd                 =   5.4036978241364E+00
(PID.TID 0000.0001) %MON exf_uwind_del2               =   1.7796839268993E-04
(PID.TID 0000.0001) %MON exf_vwind_max                =   2.2637708454586E+01
(PID.TID 0000.0001) %MON exf_vwind_min                =  -1.7016621034646E+01
(PID.TID 0000.0001) %MON exf_vwind_mean               =  -3.9681597597289E-01
(PID.TID 0000.0001) %MON exf_vwind_sd                 =   5.5525377603621E+00
(PID.TID 0000.0001) %MON exf_vwind_del2               =   1.6851674855902E-04
(PID.TID 0000.0001) %MON exf_wspeed_max               =   2.7913030506724E+01
(PID.TID 0000.0001) %MON exf_wspeed_min               =   8.5588190650635E-03
(PID.TID 0000.0001) %MON exf_wspeed_mean              =   7.0407950423507E+00
(PID.TID 0000.0001) %MON exf_wspeed_sd                =   3.2679879511421E+00
(PID.TID 0000.0001) %MON exf_wspeed_del2              =   4.0401866904227E-03
(PID.TID 0000.0001) %MON exf_atemp_max                =   3.0544174520297E+02
(PID.TID 0000.0001) %MON exf_atemp_min                =   2.2906328305025E+02
(PID.TID 0000.0001) %MON exf_atemp_mean               =   2.8927421714345E+02
(PID.TID 0000.0001) %MON exf_atemp_sd                 =   1.2293548512651E+01
(PID.TID 0000.0001) %MON exf_atemp_del2               =   8.6111575938007E-03
(PID.TID 0000.0001) %MON exf_aqh_max                  =   2.2041303535887E-02
(PID.TID 0000.0001) %MON exf_aqh_min                  =   8.0510205623046E-05
(PID.TID 0000.0001) %MON exf_aqh_mean                 =   1.1032108950818E-02
(PID.TID 0000.0001) %MON exf_aqh_sd                   =   5.7163855430061E-03
(PID.TID 0000.0001) %MON exf_aqh_del2                 =   4.7972676989412E-06
(PID.TID 0000.0001) %MON exf_lwflux_max               =   2.0697677288523E+02
(PID.TID 0000.0001) %MON exf_lwflux_min               =  -1.6223728061541E+01
(PID.TID 0000.0001) %MON exf_lwflux_mean              =   5.1163336373065E+01
(PID.TID 0000.0001) %MON exf_lwflux_sd                =   2.8935701257485E+01
(PID.TID 0000.0001) %MON exf_lwflux_del2              =   3.2919845424271E-02
(PID.TID 0000.0001) %MON exf_evap_max                 =   2.6223890712441E-07
(PID.TID 0000.0001) %MON exf_evap_min                 =  -2.2589079426334E-08
(PID.TID 0000.0001) %MON exf_evap_mean                =   4.4978150518049E-08
(PID.TID 0000.0001) %MON exf_evap_sd                  =   2.9654766304834E-08
(PID.TID 0000.0001) %MON exf_evap_del2                =   2.2906695562533E-11
(PID.TID 0000.0001) %MON exf_precip_max               =   1.4102339612134E-06
(PID.TID 0000.0001) %MON exf_precip_min               =  -2.0439423598777E-09
(PID.TID 0000.0001) %MON exf_precip_mean              =   3.5702814473197E-08
(PID.TID 0000.0001) %MON exf_precip_sd                =   6.9184799917194E-08
(PID.TID 0000.0001) %MON exf_precip_del2              =   3.6582528834383E-11
(PID.TID 0000.0001) %MON exf_swflux_max               =   7.2668544727043E+00
(PID.TID 0000.0001) %MON exf_swflux_min               =  -7.0499160270554E+02
(PID.TID 0000.0001) %MON exf_swflux_mean              =  -1.9916932605880E+02
(PID.TID 0000.0001) %MON exf_swflux_sd                =   1.7524906729167E+02
(PID.TID 0000.0001) %MON exf_swflux_del2              =   1.2117623307789E-01
(PID.TID 0000.0001) %MON exf_swdown_max               =   7.6153330279301E+02
(PID.TID 0000.0001) %MON exf_swdown_min               =  -7.8352799539243E+00
(PID.TID 0000.0001) %MON exf_swdown_mean              =   2.1596294691738E+02
(PID.TID 0000.0001) %MON exf_swdown_sd                =   1.8933565214712E+02
(PID.TID 0000.0001) %MON exf_swdown_del2              =   1.3156519888505E-01
(PID.TID 0000.0001) %MON exf_lwdown_max               =   4.5849392190407E+02
(PID.TID 0000.0001) %MON exf_lwdown_min               =   9.3636323600518E+01
(PID.TID 0000.0001) %MON exf_lwdown_mean              =   3.6067387948452E+02
(PID.TID 0000.0001) %MON exf_lwdown_sd                =   6.5052156035931E+01
(PID.TID 0000.0001) %MON exf_lwdown_del2              =   1.6285029630001E-01
(PID.TID 0000.0001) %MON exf_runoff_max               =   2.1975770760501E-06
(PID.TID 0000.0001) %MON exf_runoff_min               =   0.0000000000000E+00
(PID.TID 0000.0001) %MON exf_runoff_mean              =   3.0437758396335E-09
(PID.TID 0000.0001) %MON exf_runoff_sd                =   2.3397476832009E-08
(PID.TID 0000.0001) %MON exf_runoff_del2              =   1.4547860881383E-11
(PID.TID 0000.0001) %MON exf_apco2_max                =   3.6150824527879E-04
(PID.TID 0000.0001) %MON exf_apco2_min                =   3.5358146891574E-04
(PID.TID 0000.0001) %MON exf_apco2_mean               =   3.5574499985581E-04
(PID.TID 0000.0001) %MON exf_apco2_sd                 =   2.1007154978065E-06
(PID.TID 0000.0001) %MON exf_apco2_del2               =   1.7447595821452E-07
(PID.TID 0000.0001) // =======================================================
(PID.TID 0000.0001) // End MONITOR EXF statistics
(PID.TID 0000.0001) // =======================================================
 SEAICE_LSR: Residual Initial ipass,Uice,Vice=    1  8.02860615E-02  1.42947298E-01
 SEAICE_LSR: Residual FrDrift U_fd,V_fd=  4.93691197E+02  6.27350577E+02
 SEAICE_LSR (ipass=   1) iters,dU,Resid=    82  1.92034561E-04  7.29232922E-03
 SEAICE_LSR (ipass=   1) iters,dV,Resid=    82  8.86635050E-05  8.24940414E-03
 SEAICE_LSR: Residual Initial ipass,Uice,Vice=    2  4.48329634E-01  2.61530660E-01
 SEAICE_LSR: Residual FrDrift U_fd,V_fd=  4.93683097E+02  6.27340030E+02
 SEAICE_LSR (ipass=   2) iters,dU,Resid=    50  1.95876567E-04  7.05536791E-03
 SEAICE_LSR (ipass=   2) iters,dV,Resid=    50  1.11523175E-04  8.43925281E-03
 cg2d: Sum(rhs),rhsMax =  -9.66367775336146E+02  5.90521735267131E-02
(PID.TID 0000.0001)      cg2d_init_res =   4.15996858062186E-01
(PID.TID 0000.0001)      cg2d_iters(min,last) =      -1      93
(PID.TID 0000.0001)      cg2d_last_res =   4.43279573949024E-05
(PID.TID 0000.0001) // =======================================================
(PID.TID 0000.0001) // Begin MONITOR dynamic field statistics
(PID.TID 0000.0001) // =======================================================
(PID.TID 0000.0001) %MON time_tsnumber                =                     4
(PID.TID 0000.0001) %MON time_secondsf                =   4.8000000000000E+03
(PID.TID 0000.0001) %MON dynstat_eta_max              =   1.1672817924102E+00
(PID.TID 0000.0001) %MON dynstat_eta_min              =  -5.5823770905759E+00
(PID.TID 0000.0001) %MON dynstat_eta_mean             =   4.4824477272912E-02
(PID.TID 0000.0001) %MON dynstat_eta_sd               =   7.9648375108872E-01
(PID.TID 0000.0001) %MON dynstat_eta_del2             =   3.5052942522798E-05
(PID.TID 0000.0001) %MON dynstat_uvel_max             =   1.4663201421826E+00
(PID.TID 0000.0001) %MON dynstat_uvel_min             =  -9.4610940933076E-01
(PID.TID 0000.0001) %MON dynstat_uvel_mean            =   1.1652194740555E-03
(PID.TID 0000.0001) %MON dynstat_uvel_sd              =   2.4398377052834E-02
(PID.TID 0000.0001) %MON dynstat_uvel_del2            =   3.0273724461724E-06
(PID.TID 0000.0001) %MON dynstat_vvel_max             =   1.4412253838431E+00
(PID.TID 0000.0001) %MON dynstat_vvel_min             =  -1.4715831476246E+00
(PID.TID 0000.0001) %MON dynstat_vvel_mean            =   1.0254195640522E-03
(PID.TID 0000.0001) %MON dynstat_vvel_sd              =   2.6995404720133E-02
(PID.TID 0000.0001) %MON dynstat_vvel_del2            =   3.0082771547723E-06
(PID.TID 0000.0001) %MON dynstat_wvel_max             =   3.5024393348939E-03
(PID.TID 0000.0001) %MON dynstat_wvel_min             =  -6.3711274668363E-03
(PID.TID 0000.0001) %MON dynstat_wvel_mean            =  -5.2533079117302E-09
(PID.TID 0000.0001) %MON dynstat_wvel_sd              =   6.8732102210245E-05
(PID.TID 0000.0001) %MON dynstat_wvel_del2            =   1.5953156418071E-08
(PID.TID 0000.0001) %MON dynstat_theta_max            =   3.3024535809507E+01
(PID.TID 0000.0001) %MON dynstat_theta_min            =  -2.0000459900357E+00
(PID.TID 0000.0001) %MON dynstat_theta_mean           =   3.5847785517829E+00
(PID.TID 0000.0001) %MON dynstat_theta_sd             =   4.4307901149653E+00
(PID.TID 0000.0001) %MON dynstat_theta_del2           =   1.5804891603472E-05
(PID.TID 0000.0001) %MON dynstat_salt_max             =   4.1000413733904E+01
(PID.TID 0000.0001) %MON dynstat_salt_min             =   2.8983606459162E+01
(PID.TID 0000.0001) %MON dynstat_salt_mean            =   3.4727079297307E+01
(PID.TID 0000.0001) %MON dynstat_salt_sd              =   3.8902250762689E-01
(PID.TID 0000.0001) %MON dynstat_salt_del2            =   4.6774958674308E-06
(PID.TID 0000.0001) %MON dynstat_sst_max              =   3.3024535809507E+01
(PID.TID 0000.0001) %MON dynstat_sst_min              =  -1.9622601598800E+00
(PID.TID 0000.0001) %MON dynstat_sst_mean             =   1.8547231259009E+01
(PID.TID 0000.0001) %MON dynstat_sst_sd               =   1.0128001267443E+01
(PID.TID 0000.0001) %MON dynstat_sst_del2             =   1.6900550342317E-04
(PID.TID 0000.0001) %MON dynstat_sss_max              =   4.1000413733904E+01
(PID.TID 0000.0001) %MON dynstat_sss_min              =   2.8983606459162E+01
(PID.TID 0000.0001) %MON dynstat_sss_mean             =   3.4555380449293E+01
(PID.TID 0000.0001) %MON dynstat_sss_sd               =   1.3640839097292E+00
(PID.TID 0000.0001) %MON dynstat_sss_del2             =   7.8461863500419E-05
(PID.TID 0000.0001) %MON forcing_qnet_max             =   8.5442983733447E+02
(PID.TID 0000.0001) %MON forcing_qnet_min             =  -1.3555050039076E+03
(PID.TID 0000.0001) %MON forcing_qnet_mean            =  -2.1063632790067E+01
(PID.TID 0000.0001) %MON forcing_qnet_sd              =   2.0243359249544E+02
(PID.TID 0000.0001) %MON forcing_qnet_del2            =   2.6281586192132E-02
(PID.TID 0000.0001) %MON forcing_qsw_max              =   7.2668544727043E+00
(PID.TID 0000.0001) %MON forcing_qsw_min              =  -7.0499160270554E+02
(PID.TID 0000.0001) %MON forcing_qsw_mean             =  -1.9685514189853E+02
(PID.TID 0000.0001) %MON forcing_qsw_sd               =   1.7515123942468E+02
(PID.TID 0000.0001) %MON forcing_qsw_del2             =   8.5657038568184E-03
(PID.TID 0000.0001) %MON forcing_empmr_max            =   3.5368922177900E-03
(PID.TID 0000.0001) %MON forcing_empmr_min            =  -2.1342011512529E-03
(PID.TID 0000.0001) %MON forcing_empmr_mean           =   3.7537135252794E-06
(PID.TID 0000.0001) %MON forcing_empmr_sd             =   9.8794952785589E-05
(PID.TID 0000.0001) %MON forcing_empmr_del2           =   7.8416561644520E-08
(PID.TID 0000.0001) %MON forcing_fu_max               =   2.0000000000000E+00
(PID.TID 0000.0001) %MON forcing_fu_min               =  -7.2475781105097E-01
(PID.TID 0000.0001) %MON forcing_fu_mean              =   1.1328935837122E-02
(PID.TID 0000.0001) %MON forcing_fu_sd                =   1.0508014254055E-01
(PID.TID 0000.0001) %MON forcing_fu_del2              =   9.4884121407291E-06
(PID.TID 0000.0001) %MON forcing_fv_max               =   1.4152846348889E+00
(PID.TID 0000.0001) %MON forcing_fv_min               =  -1.2054966083438E+00
(PID.TID 0000.0001) %MON forcing_fv_mean              =   2.6625014261021E-03
(PID.TID 0000.0001) %MON forcing_fv_sd                =   9.6710095461225E-02
(PID.TID 0000.0001) %MON forcing_fv_del2              =   8.6713386307108E-06
(PID.TID 0000.0001) %MON trAdv_CFL_u_max              =   9.9297559896516E-02
(PID.TID 0000.0001) %MON trAdv_CFL_v_max              =   6.0825867467269E-02
(PID.TID 0000.0001) %MON trAdv_CFL_w_max              =   2.7408221875825E-01
(PID.TID 0000.0001) %MON advcfl_uvel_max              =   9.9126349263134E-02
(PID.TID 0000.0001) %MON advcfl_vvel_max              =   5.9639666331678E-02
(PID.TID 0000.0001) %MON advcfl_wvel_max              =   2.6794586393424E-01
(PID.TID 0000.0001) %MON advcfl_W_hf_max              =   2.7570269212525E-01
(PID.TID 0000.0001) %MON pe_b_mean                    =   3.0737180083802E-04
(PID.TID 0000.0001) %MON ke_max                       =   1.0433861243454E+00
(PID.TID 0000.0001) %MON ke_mean                      =   6.4746720205851E-04
(PID.TID 0000.0001) %MON ke_vol                       =   1.3346996855770E+18
(PID.TID 0000.0001) %MON vort_r_min                   =  -1.0440527543678E-04
(PID.TID 0000.0001) %MON vort_r_max                   =   8.1833317027927E-05
(PID.TID 0000.0001) %MON vort_a_mean                  =  -1.9771265317094E-05
(PID.TID 0000.0001) %MON vort_a_sd                    =   7.4554645200405E-05
(PID.TID 0000.0001) %MON vort_p_mean                  =  -2.1179978038142E-05
(PID.TID 0000.0001) %MON vort_p_sd                    =   8.8323331564560E-05
(PID.TID 0000.0001) %MON surfExpan_theta_mean         =  -1.1910210111803E-07
(PID.TID 0000.0001) %MON surfExpan_salt_mean          =   1.5254773389125E-08
(PID.TID 0000.0001) // =======================================================
(PID.TID 0000.0001) // End MONITOR dynamic field statistics
(PID.TID 0000.0001) // =======================================================
(PID.TID 0000.0001) // =======================================================
(PID.TID 0000.0001) // Begin MONITOR SEAICE statistics
(PID.TID 0000.0001) // =======================================================
(PID.TID 0000.0001) %MON seaice_tsnumber              =                     4
(PID.TID 0000.0001) %MON seaice_time_sec              =   4.8000000000000E+03
(PID.TID 0000.0001) %MON seaice_uice_max              =   4.0000000000000E-01
(PID.TID 0000.0001) %MON seaice_uice_min              =  -4.0000000000000E-01
(PID.TID 0000.0001) %MON seaice_uice_mean             =   6.1668992049030E-04
(PID.TID 0000.0001) %MON seaice_uice_sd               =   1.8138782620864E-01
(PID.TID 0000.0001) %MON seaice_uice_del2             =   3.2066083691834E-05
(PID.TID 0000.0001) %MON seaice_vice_max              =   4.0000000000000E-01
(PID.TID 0000.0001) %MON seaice_vice_min              =  -4.0000000000000E-01
(PID.TID 0000.0001) %MON seaice_vice_mean             =  -1.9212986462933E-03
(PID.TID 0000.0001) %MON seaice_vice_sd               =   1.8147236782417E-01
(PID.TID 0000.0001) %MON seaice_vice_del2             =   3.3055602286236E-05
(PID.TID 0000.0001) %MON seaice_area_max              =   9.5000000000000E-01
(PID.TID 0000.0001) %MON seaice_area_min              =   0.0000000000000E+00
(PID.TID 0000.0001) %MON seaice_area_mean             =   4.7736080129454E-02
(PID.TID 0000.0001) %MON seaice_area_sd               =   1.9560701558052E-01
(PID.TID 0000.0001) %MON seaice_area_del2             =   4.2644285952627E-05
(PID.TID 0000.0001) %MON seaice_heff_max              =   5.7660541953510E+00
(PID.TID 0000.0001) %MON seaice_heff_min              =   0.0000000000000E+00
(PID.TID 0000.0001) %MON seaice_heff_mean             =   8.3070040911300E-02
(PID.TID 0000.0001) %MON seaice_heff_sd               =   4.3474934743405E-01
(PID.TID 0000.0001) %MON seaice_heff_del2             =   3.7470498948967E-05
(PID.TID 0000.0001) %MON seaice_hsnow_max             =   8.5158185594607E-01
(PID.TID 0000.0001) %MON seaice_hsnow_min             =  -2.7175333431453E-07
(PID.TID 0000.0001) %MON seaice_hsnow_mean            =   5.2332387255436E-03
(PID.TID 0000.0001) %MON seaice_hsnow_sd              =   2.9417810674256E-02
(PID.TID 0000.0001) %MON seaice_hsnow_del2            =   4.7087862502239E-06
(PID.TID 0000.0001) // =======================================================
(PID.TID 0000.0001) // End MONITOR SEAICE statistics
(PID.TID 0000.0001) // =======================================================
(PID.TID 0000.0001) // =======================================================
(PID.TID 0000.0001) // Begin MONITOR ptracer field statistics
(PID.TID 0000.0001) // =======================================================
(PID.TID 0000.0001) %MON trcstat_ptracer01_max        =   4.0364589206250E+00
(PID.TID 0000.0001) %MON trcstat_ptracer01_min        =  -9.3689565746071E-01
(PID.TID 0000.0001) %MON trcstat_ptracer01_mean       =   2.2269001902799E+00
(PID.TID 0000.0001) %MON trcstat_ptracer01_sd         =   6.6876678412322E-01
(PID.TID 0000.0001) %MON trcstat_ptracer01_del2       =   1.3016572632666E-05
(PID.TID 0000.0001) %MON trcstat_ptracer02_max        =   5.7707160292115E+01
(PID.TID 0000.0001) %MON trcstat_ptracer02_min        =  -7.0059692224550E+00
(PID.TID 0000.0001) %MON trcstat_ptracer02_mean       =   3.1702732981245E+01
(PID.TID 0000.0001) %MON trcstat_ptracer02_sd         =   9.3864448373668E+00
(PID.TID 0000.0001) %MON trcstat_ptracer02_del2       =   1.9238654754244E-04
(PID.TID 0000.0001) %MON trcstat_ptracer03_max        =   1.0954239567964E-03
(PID.TID 0000.0001) %MON trcstat_ptracer03_min        =  -1.4452257644466E-04
(PID.TID 0000.0001) %MON trcstat_ptracer03_mean       =   5.5046315926245E-04
(PID.TID 0000.0001) %MON trcstat_ptracer03_sd         =   1.2603755715628E-04
(PID.TID 0000.0001) %MON trcstat_ptracer03_del2       =   4.3671369065864E-09
(PID.TID 0000.0001) %MON trcstat_ptracer04_max        =   2.5507766854957E+02
(PID.TID 0000.0001) %MON trcstat_ptracer04_min        =  -3.6564619418755E+01
(PID.TID 0000.0001) %MON trcstat_ptracer04_mean       =   9.0903065679905E+01
(PID.TID 0000.0001) %MON trcstat_ptracer04_sd         =   5.3320486739433E+01
(PID.TID 0000.0001) %MON trcstat_ptracer04_del2       =   5.2987840221086E-04
(PID.TID 0000.0001) %MON trcstat_ptracer05_max        =   6.0388593279347E-01
(PID.TID 0000.0001) %MON trcstat_ptracer05_min        =  -5.5161987496855E-02
(PID.TID 0000.0001) %MON trcstat_ptracer05_mean       =   3.0289315719893E-03
(PID.TID 0000.0001) %MON trcstat_ptracer05_sd         =   1.9505797549592E-02
(PID.TID 0000.0001) %MON trcstat_ptracer05_del2       =   1.0287861169018E-06
(PID.TID 0000.0001) %MON trcstat_ptracer06_max        =   9.6621749246955E+00
(PID.TID 0000.0001) %MON trcstat_ptracer06_min        =  -8.8259179995291E-01
(PID.TID 0000.0001) %MON trcstat_ptracer06_mean       =   4.8462905151828E-02
(PID.TID 0000.0001) %MON trcstat_ptracer06_sd         =   3.1209276079345E-01
(PID.TID 0000.0001) %MON trcstat_ptracer06_del2       =   1.6460577870429E-05
(PID.TID 0000.0001) %MON trcstat_ptracer07_max        =   6.0388593279347E-04
(PID.TID 0000.0001) %MON trcstat_ptracer07_min        =  -5.5161987497089E-05
(PID.TID 0000.0001) %MON trcstat_ptracer07_mean       =   3.0289315719895E-06
(PID.TID 0000.0001) %MON trcstat_ptracer07_sd         =   1.9505797549593E-05
(PID.TID 0000.0001) %MON trcstat_ptracer07_del2       =   1.0287861169015E-09
(PID.TID 0000.0001) %MON trcstat_ptracer08_max        =   5.6886448346457E-02
(PID.TID 0000.0001) %MON trcstat_ptracer08_min        =  -1.1385966703305E-02
(PID.TID 0000.0001) %MON trcstat_ptracer08_mean       =   3.4739665029634E-05
(PID.TID 0000.0001) %MON trcstat_ptracer08_sd         =   5.3511671481863E-04
(PID.TID 0000.0001) %MON trcstat_ptracer08_del2       =   4.2605781550833E-08
(PID.TID 0000.0001) %MON trcstat_ptracer09_max        =   9.1018317354330E-01
(PID.TID 0000.0001) %MON trcstat_ptracer09_min        =  -1.8217546725287E-01
(PID.TID 0000.0001) %MON trcstat_ptracer09_mean       =   5.5583464047559E-04
(PID.TID 0000.0001) %MON trcstat_ptracer09_sd         =   8.5618674370877E-03
(PID.TID 0000.0001) %MON trcstat_ptracer09_del2       =   6.8169250486112E-07
(PID.TID 0000.0001) %MON trcstat_ptracer10_max        =   5.6886448346487E-05
(PID.TID 0000.0001) %MON trcstat_ptracer10_min        =  -1.1385966703305E-05
(PID.TID 0000.0001) %MON trcstat_ptracer10_mean       =   3.4739665029762E-08
(PID.TID 0000.0001) %MON trcstat_ptracer10_sd         =   5.3511671481831E-07
(PID.TID 0000.0001) %MON trcstat_ptracer10_del2       =   4.2605781549564E-11
(PID.TID 0000.0001) %MON trcstat_ptracer11_max        =   3.1014034441291E-02
(PID.TID 0000.0001) %MON trcstat_ptracer11_min        =  -3.1772655884527E-03
(PID.TID 0000.0001) %MON trcstat_ptracer11_mean       =   6.4707755985821E-06
(PID.TID 0000.0001) %MON trcstat_ptracer11_sd         =   1.4266919252432E-04
(PID.TID 0000.0001) %MON trcstat_ptracer11_del2       =   1.6497466321654E-08
(PID.TID 0000.0001) %MON trcstat_ptracer12_max        =   2.2322795554010E-01
(PID.TID 0000.0001) %MON trcstat_ptracer12_min        =  -3.9422467381312E-02
(PID.TID 0000.0001) %MON trcstat_ptracer12_mean       =   7.4365415959388E-05
(PID.TID 0000.0001) %MON trcstat_ptracer12_sd         =   1.3218924859835E-03
(PID.TID 0000.0001) %MON trcstat_ptracer12_del2       =   1.4708936290006E-07
(PID.TID 0000.0001) %MON trcstat_ptracer13_max        =   3.5716472886417E+00
(PID.TID 0000.0001) %MON trcstat_ptracer13_min        =  -6.3075947810098E-01
(PID.TID 0000.0001) %MON trcstat_ptracer13_mean       =   1.1898466553490E-03
(PID.TID 0000.0001) %MON trcstat_ptracer13_sd         =   2.1150279775725E-02
(PID.TID 0000.0001) %MON trcstat_ptracer13_del2       =   2.3534298061595E-06
(PID.TID 0000.0001) %MON trcstat_ptracer14_max        =   2.2322795554010E-04
(PID.TID 0000.0001) %MON trcstat_ptracer14_min        =  -3.9422467381311E-05
(PID.TID 0000.0001) %MON trcstat_ptracer14_mean       =   7.4365415959070E-08
(PID.TID 0000.0001) %MON trcstat_ptracer14_sd         =   1.3218924859822E-06
(PID.TID 0000.0001) %MON trcstat_ptracer14_del2       =   1.4708936289428E-10
(PID.TID 0000.0001) %MON trcstat_ptracer15_max        =   1.2666976994067E+00
(PID.TID 0000.0001) %MON trcstat_ptracer15_min        =  -1.8569823646725E-01
(PID.TID 0000.0001) %MON trcstat_ptracer15_mean       =   5.3931777188827E-04
(PID.TID 0000.0001) %MON trcstat_ptracer15_sd         =   9.9284509464767E-03
(PID.TID 0000.0001) %MON trcstat_ptracer15_del2       =   1.0994181081641E-06
(PID.TID 0000.0001) %MON trcstat_ptracer16_max        =   2.7830025285524E+00
(PID.TID 0000.0001) %MON trcstat_ptracer16_min        =  -5.7132377062009E-03
(PID.TID 0000.0001) %MON trcstat_ptracer16_mean       =   6.6533487680058E-04
(PID.TID 0000.0001) %MON trcstat_ptracer16_sd         =   2.1396172932318E-03
(PID.TID 0000.0001) %MON trcstat_ptracer16_del2       =   8.2709724606359E-07
(PID.TID 0000.0001) %MON trcstat_ptracer17_max        =   4.4528040456838E+01
(PID.TID 0000.0001) %MON trcstat_ptracer17_min        =  -9.1411803299214E-02
(PID.TID 0000.0001) %MON trcstat_ptracer17_mean       =   1.0645358028809E-02
(PID.TID 0000.0001) %MON trcstat_ptracer17_sd         =   3.4233876691687E-02
(PID.TID 0000.0001) %MON trcstat_ptracer17_del2       =   1.3233555937026E-05
(PID.TID 0000.0001) %MON trcstat_ptracer18_max        =   2.7830025285516E-03
(PID.TID 0000.0001) %MON trcstat_ptracer18_min        =  -5.7132377062009E-06
(PID.TID 0000.0001) %MON trcstat_ptracer18_mean       =   6.6533487680054E-07
(PID.TID 0000.0001) %MON trcstat_ptracer18_sd         =   2.1396172932309E-06
(PID.TID 0000.0001) %MON trcstat_ptracer18_del2       =   8.2709724606251E-10
(PID.TID 0000.0001) %MON trcstat_ptracer19_max        =   3.9352747285814E+02
(PID.TID 0000.0001) %MON trcstat_ptracer19_min        =  -3.2364484781403E-01
(PID.TID 0000.0001) %MON trcstat_ptracer19_mean       =   7.1403642728789E-02
(PID.TID 0000.0001) %MON trcstat_ptracer19_sd         =   2.1758863818969E-01
(PID.TID 0000.0001) %MON trcstat_ptracer19_del2       =   8.1417101342638E-05
(PID.TID 0000.0001) %MON trcstat_ptracer20_max        =   1.2194590924772E+00
(PID.TID 0000.0001) %MON trcstat_ptracer20_min        =  -1.1393225590155E-01
(PID.TID 0000.0001) %MON trcstat_ptracer20_mean       =   6.3546366501767E-04
(PID.TID 0000.0001) %MON trcstat_ptracer20_sd         =   5.3850923400431E-03
(PID.TID 0000.0001) %MON trcstat_ptracer20_del2       =   7.0354539257771E-07
(PID.TID 0000.0001) %MON trcstat_ptracer21_max        =   3.7963132429980E+00
(PID.TID 0000.0001) %MON trcstat_ptracer21_min        =  -2.1543466105029E-01
(PID.TID 0000.0001) %MON trcstat_ptracer21_mean       =   4.8801350824587E-03
(PID.TID 0000.0001) %MON trcstat_ptracer21_sd         =   2.9698909677014E-02
(PID.TID 0000.0001) %MON trcstat_ptracer21_del2       =   2.5270864312420E-06
(PID.TID 0000.0001) %MON trcstat_ptracer22_max        =   2.0459923722804E-01
(PID.TID 0000.0001) %MON trcstat_ptracer22_min        =  -7.2756557487450E-02
(PID.TID 0000.0001) %MON trcstat_ptracer22_mean       =   1.0680535728547E-04
(PID.TID 0000.0001) %MON trcstat_ptracer22_sd         =   1.8070071949410E-03
(PID.TID 0000.0001) %MON trcstat_ptracer22_del2       =   2.5941175966615E-07
(PID.TID 0000.0001) %MON trcstat_ptracer23_max        =   1.4369536120481E-01
(PID.TID 0000.0001) %MON trcstat_ptracer23_min        =  -4.9297726971850E-02
(PID.TID 0000.0001) %MON trcstat_ptracer23_mean       =   5.8632100976113E-05
(PID.TID 0000.0001) %MON trcstat_ptracer23_sd         =   8.5550704549401E-04
(PID.TID 0000.0001) %MON trcstat_ptracer23_del2       =   1.9531260725805E-07
(PID.TID 0000.0001) %MON trcstat_ptracer24_max        =   1.5821052906427E-01
(PID.TID 0000.0001) %MON trcstat_ptracer24_min        =  -5.3569740750752E-02
(PID.TID 0000.0001) %MON trcstat_ptracer24_mean       =   4.3753102140597E-05
(PID.TID 0000.0001) %MON trcstat_ptracer24_sd         =   6.3557038554834E-04
(PID.TID 0000.0001) %MON trcstat_ptracer24_del2       =   1.2084682072933E-07
(PID.TID 0000.0001) %MON trcstat_ptracer25_max        =   3.4397317641118E-03
(PID.TID 0000.0001) %MON trcstat_ptracer25_min        =  -1.2269929480955E-03
(PID.TID 0000.0001) %MON trcstat_ptracer25_mean       =   7.7578111023449E-08
(PID.TID 0000.0001) %MON trcstat_ptracer25_sd         =   1.2211292385708E-05
(PID.TID 0000.0001) %MON trcstat_ptracer25_del2       =   1.2683119507401E-09
(PID.TID 0000.0001) %MON trcstat_ptracer26_max        =   2.7963051484485E-02
(PID.TID 0000.0001) %MON trcstat_ptracer26_min        =  -4.7726621976608E-03
(PID.TID 0000.0001) %MON trcstat_ptracer26_mean       =   9.8225600226901E-05
(PID.TID 0000.0001) %MON trcstat_ptracer26_sd         =   8.8266880185348E-04
(PID.TID 0000.0001) %MON trcstat_ptracer26_del2       =   5.3629020726660E-08
(PID.TID 0000.0001) %MON trcstat_ptracer27_max        =   3.0985220971686E+01
(PID.TID 0000.0001) %MON trcstat_ptracer27_min        =  -1.3836580894897E+00
(PID.TID 0000.0001) %MON trcstat_ptracer27_mean       =   4.3832610656414E-03
(PID.TID 0000.0001) %MON trcstat_ptracer27_sd         =   6.3071604364500E-02
(PID.TID 0000.0001) %MON trcstat_ptracer27_del2       =   1.1909254156758E-05
(PID.TID 0000.0001) %MON trcstat_ptracer28_max        =   8.6217094997858E+01
(PID.TID 0000.0001) %MON trcstat_ptracer28_min        =  -1.1686423886550E+00
(PID.TID 0000.0001) %MON trcstat_ptracer28_mean       =   3.0984895615134E-03
(PID.TID 0000.0001) %MON trcstat_ptracer28_sd         =   9.7852684807333E-02
(PID.TID 0000.0001) %MON trcstat_ptracer28_del2       =   1.3018650669770E-05
(PID.TID 0000.0001) %MON trcstat_ptracer29_max        =   4.6445414204063E+01
(PID.TID 0000.0001) %MON trcstat_ptracer29_min        =  -4.7327126672996E-01
(PID.TID 0000.0001) %MON trcstat_ptracer29_mean       =   5.3743196053775E-04
(PID.TID 0000.0001) %MON trcstat_ptracer29_sd         =   1.3235760452128E-02
(PID.TID 0000.0001) %MON trcstat_ptracer29_del2       =   7.5993571203095E-06
(PID.TID 0000.0001) %MON trcstat_ptracer30_max        =   1.1107347412694E-02
(PID.TID 0000.0001) %MON trcstat_ptracer30_min        =  -7.0093446283273E-03
(PID.TID 0000.0001) %MON trcstat_ptracer30_mean       =   2.7542234224211E-07
(PID.TID 0000.0001) %MON trcstat_ptracer30_sd         =   5.1303334764866E-05
(PID.TID 0000.0001) %MON trcstat_ptracer30_del2       =   4.7239191085667E-09
(PID.TID 0000.0001) %MON trcstat_ptracer31_max        =   3.8651491952249E+02
(PID.TID 0000.0001) %MON trcstat_ptracer31_min        =  -8.2159236977626E-01
(PID.TID 0000.0001) %MON trcstat_ptracer31_mean       =   1.4318927721564E-01
(PID.TID 0000.0001) %MON trcstat_ptracer31_sd         =   4.0993731740453E+00
(PID.TID 0000.0001) %MON trcstat_ptracer31_del2       =   1.0455713460500E-04
(PID.TID 0000.0001) %MON trcstat_ptracer32_max        =   2.5152480609248E+03
(PID.TID 0000.0001) %MON trcstat_ptracer32_min        =   1.3960519298945E+03
(PID.TID 0000.0001) %MON trcstat_ptracer32_mean       =   2.3369472530069E+03
(PID.TID 0000.0001) %MON trcstat_ptracer32_sd         =   8.6333739703621E+01
(PID.TID 0000.0001) %MON trcstat_ptracer32_del2       =   1.3379976029037E-03
(PID.TID 0000.0001) %MON trcstat_ptracer33_max        =   1.0170837274166E+02
(PID.TID 0000.0001) %MON trcstat_ptracer33_min        =  -1.0474066767886E+01
(PID.TID 0000.0001) %MON trcstat_ptracer33_mean       =   7.1904356544928E-01
(PID.TID 0000.0001) %MON trcstat_ptracer33_sd         =   4.0426621441885E+00
(PID.TID 0000.0001) %MON trcstat_ptracer33_del2       =   1.8681599679325E-04
(PID.TID 0000.0001) %MON trcstat_ptracer34_max        =   7.3308470221576E+02
(PID.TID 0000.0001) %MON trcstat_ptracer34_min        =  -7.0618627133028E-01
(PID.TID 0000.0001) %MON trcstat_ptracer34_mean       =   1.5699946385228E-01
(PID.TID 0000.0001) %MON trcstat_ptracer34_sd         =   4.2726206416678E-01
(PID.TID 0000.0001) %MON trcstat_ptracer34_del2       =   1.8861838353452E-04
(PID.TID 0000.0001) %MON trcstat_ptracer35_max        =   1.3365447008299E+02
(PID.TID 0000.0001) %MON trcstat_ptracer35_min        =  -6.6465205358292E-02
(PID.TID 0000.0001) %MON trcstat_ptracer35_mean       =   1.4832364754773E-02
(PID.TID 0000.0001) %MON trcstat_ptracer35_sd         =   6.7295461907794E-02
(PID.TID 0000.0001) %MON trcstat_ptracer35_del2       =   3.0175587027339E-05
(PID.TID 0000.0001) %MON trcstat_ptracer36_max        =   2.7513331664992E+03
(PID.TID 0000.0001) %MON trcstat_ptracer36_min        =   1.3864141813434E+03
(PID.TID 0000.0001) %MON trcstat_ptracer36_mean       =   2.4479561364278E+03
(PID.TID 0000.0001) %MON trcstat_ptracer36_sd         =   5.6908025903740E+01
(PID.TID 0000.0001) %MON trcstat_ptracer36_del2       =   9.4315152478799E-04
(PID.TID 0000.0001) %MON trcstat_ptracer37_max        =   4.8991179553574E+02
(PID.TID 0000.0001) %MON trcstat_ptracer37_min        =  -8.8635271373362E+01
(PID.TID 0000.0001) %MON trcstat_ptracer37_mean       =   1.7828533263837E+02
(PID.TID 0000.0001) %MON trcstat_ptracer37_sd         =   6.6689453387717E+01
(PID.TID 0000.0001) %MON trcstat_ptracer37_del2       =   1.4050620181157E-03
(PID.TID 0000.0001) %MON trcstat_ptracer38_max        =   6.8263738015776E+00
(PID.TID 0000.0001) %MON trcstat_ptracer38_min        =  -1.3663160043965E+00
(PID.TID 0000.0001) %MON trcstat_ptracer38_mean       =   4.1687598035855E-03
(PID.TID 0000.0001) %MON trcstat_ptracer38_sd         =   6.4214005777908E-02
(PID.TID 0000.0001) %MON trcstat_ptracer38_del2       =   5.1126937861180E-06
(PID.TID 0000.0001) %MON trcstat_ptracer39_max        =   2.6787354664812E+01
(PID.TID 0000.0001) %MON trcstat_ptracer39_min        =  -4.7306960857574E+00
(PID.TID 0000.0001) %MON trcstat_ptracer39_mean       =   8.9238499150710E-03
(PID.TID 0000.0001) %MON trcstat_ptracer39_sd         =   1.5862709831812E-01
(PID.TID 0000.0001) %MON trcstat_ptracer39_del2       =   1.7650723547653E-05
(PID.TID 0000.0001) // =======================================================
(PID.TID 0000.0001) // End MONITOR ptracers field statistics
(PID.TID 0000.0001) // =======================================================
(PID.TID 0000.0001) // =======================================================
(PID.TID 0000.0001) // Begin MONITOR EXF statistics
(PID.TID 0000.0001) // =======================================================
(PID.TID 0000.0001) %MON exf_tsnumber                 =                     4
(PID.TID 0000.0001) %MON exf_time_sec                 =   4.8000000000000E+03
(PID.TID 0000.0001) %MON exf_ustress_max              =   1.9579346606925E+00
(PID.TID 0000.0001) %MON exf_ustress_min              =  -1.2777242629353E+00
(PID.TID 0000.0001) %MON exf_ustress_mean             =   1.1260199684353E-02
(PID.TID 0000.0001) %MON exf_ustress_sd               =   1.0288377270412E-01
(PID.TID 0000.0001) %MON exf_ustress_del2             =   5.5469346551161E-06
(PID.TID 0000.0001) %MON exf_vstress_max              =   1.2478929031955E+00
(PID.TID 0000.0001) %MON exf_vstress_min              =  -1.0479560927124E+00
(PID.TID 0000.0001) %MON exf_vstress_mean             =   2.7824218968709E-03
(PID.TID 0000.0001) %MON exf_vstress_sd               =   9.5137812218986E-02
(PID.TID 0000.0001) %MON exf_vstress_del2             =   4.7716205283011E-06
(PID.TID 0000.0001) %MON exf_hflux_max                =   1.1001099221040E+03
(PID.TID 0000.0001) %MON exf_hflux_min                =  -6.4081731888313E+02
(PID.TID 0000.0001) %MON exf_hflux_mean               =  -6.4009790438692E+00
(PID.TID 0000.0001) %MON exf_hflux_sd                 =   2.3052270540790E+02
(PID.TID 0000.0001) %MON exf_hflux_del2               =   1.3074547874619E-01
(PID.TID 0000.0001) %MON exf_sflux_max                =   2.5364650796982E-07
(PID.TID 0000.0001) %MON exf_sflux_min                =  -2.1362293730777E-06
(PID.TID 0000.0001) %MON exf_sflux_mean               =   6.2766438490817E-09
(PID.TID 0000.0001) %MON exf_sflux_sd                 =   8.0792238984604E-08
(PID.TID 0000.0001) %MON exf_sflux_del2               =   3.9512878125728E-11
(PID.TID 0000.0001) %MON exf_uwind_max                =   2.6113029161441E+01
(PID.TID 0000.0001) %MON exf_uwind_min                =  -2.1846040435956E+01
(PID.TID 0000.0001) %MON exf_uwind_mean               =   2.5706482145494E-01
(PID.TID 0000.0001) %MON exf_uwind_sd                 =   5.3793735285596E+00
(PID.TID 0000.0001) %MON exf_uwind_del2               =   1.7366318509367E-04
(PID.TID 0000.0001) %MON exf_vwind_max                =   2.0302211456979E+01
(PID.TID 0000.0001) %MON exf_vwind_min                =  -1.6649529839423E+01
(PID.TID 0000.0001) %MON exf_vwind_mean               =  -3.9913508908233E-01
(PID.TID 0000.0001) %MON exf_vwind_sd                 =   5.5333874986661E+00
(PID.TID 0000.0001) %MON exf_vwind_del2               =   1.6542615026596E-04
(PID.TID 0000.0001) %MON exf_wspeed_max               =   2.7161620589639E+01
(PID.TID 0000.0001) %MON exf_wspeed_min               =   2.2210525828391E-02
(PID.TID 0000.0001) %MON exf_wspeed_mean              =   7.0156018218508E+00
(PID.TID 0000.0001) %MON exf_wspeed_sd                =   3.2500398442438E+00
(PID.TID 0000.0001) %MON exf_wspeed_del2              =   4.0226072876916E-03
(PID.TID 0000.0001) %MON exf_atemp_max                =   3.0571211599206E+02
(PID.TID 0000.0001) %MON exf_atemp_min                =   2.2900888405586E+02
(PID.TID 0000.0001) %MON exf_atemp_mean               =   2.8926466479041E+02
(PID.TID 0000.0001) %MON exf_atemp_sd                 =   1.2294666824433E+01
(PID.TID 0000.0001) %MON exf_atemp_del2               =   8.6080673682686E-03
(PID.TID 0000.0001) %MON exf_aqh_max                  =   2.1925196556147E-02
(PID.TID 0000.0001) %MON exf_aqh_min                  =   7.9729732988531E-05
(PID.TID 0000.0001) %MON exf_aqh_mean                 =   1.1025170807248E-02
(PID.TID 0000.0001) %MON exf_aqh_sd                   =   5.7117132385509E-03
(PID.TID 0000.0001) %MON exf_aqh_del2                 =   4.7937461567278E-06
(PID.TID 0000.0001) %MON exf_lwflux_max               =   2.0759623152367E+02
(PID.TID 0000.0001) %MON exf_lwflux_min               =  -1.6505720192197E+01
(PID.TID 0000.0001) %MON exf_lwflux_mean              =   5.0615509140224E+01
(PID.TID 0000.0001) %MON exf_lwflux_sd                =   2.9067757931629E+01
(PID.TID 0000.0001) %MON exf_lwflux_del2              =   3.2775517865633E-02
(PID.TID 0000.0001) %MON exf_evap_max                 =   2.5986578498891E-07
(PID.TID 0000.0001) %MON exf_evap_min                 =  -2.3068854423513E-08
(PID.TID 0000.0001) %MON exf_evap_mean                =   4.4927265082486E-08
(PID.TID 0000.0001) %MON exf_evap_sd                  =   2.9527036601718E-08
(PID.TID 0000.0001) %MON exf_evap_del2                =   2.2838707988928E-11
(PID.TID 0000.0001) %MON exf_precip_max               =   1.4701357187292E-06
(PID.TID 0000.0001) %MON exf_precip_min               =  -2.0458472942113E-09
(PID.TID 0000.0001) %MON exf_precip_mean              =   3.5606995728603E-08
(PID.TID 0000.0001) %MON exf_precip_sd                =   6.9560640228787E-08
(PID.TID 0000.0001) %MON exf_precip_del2              =   3.6711120394009E-11
(PID.TID 0000.0001) %MON exf_swflux_max               =   7.0554640239960E+00
(PID.TID 0000.0001) %MON exf_swflux_min               =  -7.3906236484656E+02
(PID.TID 0000.0001) %MON exf_swflux_mean              =  -1.9798106090868E+02
(PID.TID 0000.0001) %MON exf_swflux_sd                =   1.7990143775885E+02
(PID.TID 0000.0001) %MON exf_swflux_del2              =   1.2191287636862E-01
(PID.TID 0000.0001) %MON exf_swdown_max               =   7.9824349826963E+02
(PID.TID 0000.0001) %MON exf_swdown_min               =  -7.6073536497727E+00
(PID.TID 0000.0001) %MON exf_swdown_mean              =   2.1467291172159E+02
(PID.TID 0000.0001) %MON exf_swdown_sd                =   1.9439352912620E+02
(PID.TID 0000.0001) %MON exf_swdown_del2              =   1.3235604445467E-01
(PID.TID 0000.0001) %MON exf_lwdown_max               =   4.5927946881010E+02
(PID.TID 0000.0001) %MON exf_lwdown_min               =   9.3605378924968E+01
(PID.TID 0000.0001) %MON exf_lwdown_mean              =   3.6124026124764E+02
(PID.TID 0000.0001) %MON exf_lwdown_sd                =   6.5228516739236E+01
(PID.TID 0000.0001) %MON exf_lwdown_del2              =   1.6310501954413E-01
(PID.TID 0000.0001) %MON exf_runoff_max               =   2.1981558703083E-06
(PID.TID 0000.0001) %MON exf_runoff_min               =   0.0000000000000E+00
(PID.TID 0000.0001) %MON exf_runoff_mean              =   3.0436255048020E-09
(PID.TID 0000.0001) %MON exf_runoff_sd                =   2.3402197953860E-08
(PID.TID 0000.0001) %MON exf_runoff_del2              =   1.4550597438876E-11
(PID.TID 0000.0001) %MON exf_apco2_max                =   3.6150848983181E-04
(PID.TID 0000.0001) %MON exf_apco2_min                =   3.5358116191295E-04
(PID.TID 0000.0001) %MON exf_apco2_mean               =   3.5574522942595E-04
(PID.TID 0000.0001) %MON exf_apco2_sd                 =   2.1011371085915E-06
(PID.TID 0000.0001) %MON exf_apco2_del2               =   1.7447603243831E-07
(PID.TID 0000.0001) // =======================================================
(PID.TID 0000.0001) // End MONITOR EXF statistics
(PID.TID 0000.0001) // =======================================================
 SEAICE_LSR: Residual Initial ipass,Uice,Vice=    1  7.86586724E-02  1.42544060E-01
 SEAICE_LSR: Residual FrDrift U_fd,V_fd=  4.90362554E+02  6.19654160E+02
 SEAICE_LSR (ipass=   1) iters,dU,Resid=    82  1.95090393E-04  7.13338221E-03
 SEAICE_LSR (ipass=   1) iters,dV,Resid=    82  8.77498475E-05  8.35910007E-03
 SEAICE_LSR: Residual Initial ipass,Uice,Vice=    2  4.11326012E-01  1.90392518E-01
 SEAICE_LSR: Residual FrDrift U_fd,V_fd=  4.90341575E+02  6.19644692E+02
 SEAICE_LSR (ipass=   2) iters,dU,Resid=    50  1.91301979E-04  6.96224432E-03
 SEAICE_LSR (ipass=   2) iters,dV,Resid=    50  1.34567303E-04  8.50667227E-03
 cg2d: Sum(rhs),rhsMax =  -9.66201767776328E+02  5.90366341766774E-02
(PID.TID 0000.0001)      cg2d_init_res =   4.17628221296125E-01
(PID.TID 0000.0001)      cg2d_iters(min,last) =      -1      90
(PID.TID 0000.0001)      cg2d_last_res =   4.45823157279777E-05
(PID.TID 0000.0001) // =======================================================
(PID.TID 0000.0001) // Begin MONITOR dynamic field statistics
(PID.TID 0000.0001) // =======================================================
(PID.TID 0000.0001) %MON time_tsnumber                =                     5
(PID.TID 0000.0001) %MON time_secondsf                =   6.0000000000000E+03
(PID.TID 0000.0001) %MON dynstat_eta_max              =   1.1677733387488E+00
(PID.TID 0000.0001) %MON dynstat_eta_min              =  -5.5823813274749E+00
(PID.TID 0000.0001) %MON dynstat_eta_mean             =   4.4820032913647E-02
(PID.TID 0000.0001) %MON dynstat_eta_sd               =   7.9648877655943E-01
(PID.TID 0000.0001) %MON dynstat_eta_del2             =   3.5048804855396E-05
(PID.TID 0000.0001) %MON dynstat_uvel_max             =   1.4339471434118E+00
(PID.TID 0000.0001) %MON dynstat_uvel_min             =  -9.4516102306629E-01
(PID.TID 0000.0001) %MON dynstat_uvel_mean            =   1.1651550917062E-03
(PID.TID 0000.0001) %MON dynstat_uvel_sd              =   2.4398913603747E-02
(PID.TID 0000.0001) %MON dynstat_uvel_del2            =   3.0286446092243E-06
(PID.TID 0000.0001) %MON dynstat_vvel_max             =   1.4413520140543E+00
(PID.TID 0000.0001) %MON dynstat_vvel_min             =  -1.4721346245482E+00
(PID.TID 0000.0001) %MON dynstat_vvel_mean            =   1.0285918393054E-03
(PID.TID 0000.0001) %MON dynstat_vvel_sd              =   2.6990783017250E-02
(PID.TID 0000.0001) %MON dynstat_vvel_del2            =   3.0089472238606E-06
(PID.TID 0000.0001) %MON dynstat_wvel_max             =   3.4995014235535E-03
(PID.TID 0000.0001) %MON dynstat_wvel_min             =  -6.3727716453454E-03
(PID.TID 0000.0001) %MON dynstat_wvel_mean            =  -5.5655202130387E-09
(PID.TID 0000.0001) %MON dynstat_wvel_sd              =   6.8709900800644E-05
(PID.TID 0000.0001) %MON dynstat_wvel_del2            =   1.5964545872153E-08
(PID.TID 0000.0001) %MON dynstat_theta_max            =   3.3033924902917E+01
(PID.TID 0000.0001) %MON dynstat_theta_min            =  -2.0000633788972E+00
(PID.TID 0000.0001) %MON dynstat_theta_mean           =   3.5847801281649E+00
(PID.TID 0000.0001) %MON dynstat_theta_sd             =   4.4307950431651E+00
(PID.TID 0000.0001) %MON dynstat_theta_del2           =   1.5802770105912E-05
(PID.TID 0000.0001) %MON dynstat_salt_max             =   4.1000542120353E+01
(PID.TID 0000.0001) %MON dynstat_salt_min             =   2.8978168047515E+01
(PID.TID 0000.0001) %MON dynstat_salt_mean            =   3.4727079340054E+01
(PID.TID 0000.0001) %MON dynstat_salt_sd              =   3.8902219532910E-01
(PID.TID 0000.0001) %MON dynstat_salt_del2            =   4.6762074482342E-06
(PID.TID 0000.0001) %MON dynstat_sst_max              =   3.3033924902917E+01
(PID.TID 0000.0001) %MON dynstat_sst_min              =  -1.9620711543013E+00
(PID.TID 0000.0001) %MON dynstat_sst_mean             =   1.8547440623125E+01
(PID.TID 0000.0001) %MON dynstat_sst_sd               =   1.0128145812041E+01
(PID.TID 0000.0001) %MON dynstat_sst_del2             =   1.6899503940173E-04
(PID.TID 0000.0001) %MON dynstat_sss_max              =   4.1000542120353E+01
(PID.TID 0000.0001) %MON dynstat_sss_min              =   2.8978168047515E+01
(PID.TID 0000.0001) %MON dynstat_sss_mean             =   3.4555399712609E+01
(PID.TID 0000.0001) %MON dynstat_sss_sd               =   1.3640803172798E+00
(PID.TID 0000.0001) %MON dynstat_sss_del2             =   7.8439485637829E-05
(PID.TID 0000.0001) %MON forcing_qnet_max             =   8.5331654963207E+02
(PID.TID 0000.0001) %MON forcing_qnet_min             =  -1.3605097571915E+03
(PID.TID 0000.0001) %MON forcing_qnet_mean            =  -2.0543345502926E+01
(PID.TID 0000.0001) %MON forcing_qnet_sd              =   2.0598524851890E+02
(PID.TID 0000.0001) %MON forcing_qnet_del2            =   2.6339000759009E-02
(PID.TID 0000.0001) %MON forcing_qsw_max              =   7.0554640239960E+00
(PID.TID 0000.0001) %MON forcing_qsw_min              =  -7.3906236484656E+02
(PID.TID 0000.0001) %MON forcing_qsw_mean             =  -1.9570784716794E+02
(PID.TID 0000.0001) %MON forcing_qsw_sd               =   1.7971402862486E+02
(PID.TID 0000.0001) %MON forcing_qsw_del2             =   8.8272209914155E-03
(PID.TID 0000.0001) %MON forcing_empmr_max            =   3.5685624694114E-03
(PID.TID 0000.0001) %MON forcing_empmr_min            =  -2.1362293730777E-03
(PID.TID 0000.0001) %MON forcing_empmr_mean           =   3.8115222008197E-06
(PID.TID 0000.0001) %MON forcing_empmr_sd             =   9.8965325141565E-05
(PID.TID 0000.0001) %MON forcing_empmr_del2           =   7.8280769995681E-08
(PID.TID 0000.0001) %MON forcing_fu_max               =   1.9526005892891E+00
(PID.TID 0000.0001) %MON forcing_fu_min               =  -7.2435817097155E-01
(PID.TID 0000.0001) %MON forcing_fu_mean              =   1.1226770502590E-02
(PID.TID 0000.0001) %MON forcing_fu_sd                =   1.0312649827453E-01
(PID.TID 0000.0001) %MON forcing_fu_del2              =   9.3026852264398E-06
(PID.TID 0000.0001) %MON forcing_fv_max               =   1.2465997134737E+00
(PID.TID 0000.0001) %MON forcing_fv_min               =  -1.0423141826592E+00
(PID.TID 0000.0001) %MON forcing_fv_mean              =   2.5482215954529E-03
(PID.TID 0000.0001) %MON forcing_fv_sd                =   9.4823433656135E-02
(PID.TID 0000.0001) %MON forcing_fv_del2              =   8.4716788683073E-06
(PID.TID 0000.0001) %MON trAdv_CFL_u_max              =   9.7133383368108E-02
(PID.TID 0000.0001) %MON trAdv_CFL_v_max              =   6.1359220795318E-02
(PID.TID 0000.0001) %MON trAdv_CFL_w_max              =   2.7010346792040E-01
(PID.TID 0000.0001) %MON advcfl_uvel_max              =   9.6937865936377E-02
(PID.TID 0000.0001) %MON advcfl_vvel_max              =   6.0173520259811E-02
(PID.TID 0000.0001) %MON advcfl_wvel_max              =   2.6409579065372E-01
(PID.TID 0000.0001) %MON advcfl_W_hf_max              =   2.7172383797813E-01
(PID.TID 0000.0001) %MON pe_b_mean                    =   3.0742619744196E-04
(PID.TID 0000.0001) %MON ke_max                       =   1.0434703035497E+00
(PID.TID 0000.0001) %MON ke_mean                      =   6.4736129903748E-04
(PID.TID 0000.0001) %MON ke_vol                       =   1.3346996840058E+18
(PID.TID 0000.0001) %MON vort_r_min                   =  -1.0453874189035E-04
(PID.TID 0000.0001) %MON vort_r_max                   =   8.1198520921988E-05
(PID.TID 0000.0001) %MON vort_a_mean                  =  -1.9771265317094E-05
(PID.TID 0000.0001) %MON vort_a_sd                    =   7.4554647102983E-05
(PID.TID 0000.0001) %MON vort_p_mean                  =  -2.1179978057615E-05
(PID.TID 0000.0001) %MON vort_p_sd                    =   8.8323346515374E-05
(PID.TID 0000.0001) %MON surfExpan_theta_mean         =  -1.0683854225423E-07
(PID.TID 0000.0001) %MON surfExpan_salt_mean          =   1.5722667552773E-08
(PID.TID 0000.0001) // =======================================================
(PID.TID 0000.0001) // End MONITOR dynamic field statistics
(PID.TID 0000.0001) // =======================================================
(PID.TID 0000.0001) // =======================================================
(PID.TID 0000.0001) // Begin MONITOR SEAICE statistics
(PID.TID 0000.0001) // =======================================================
(PID.TID 0000.0001) %MON seaice_tsnumber              =                     5
(PID.TID 0000.0001) %MON seaice_time_sec              =   6.0000000000000E+03
(PID.TID 0000.0001) %MON seaice_uice_max              =   4.0000000000000E-01
(PID.TID 0000.0001) %MON seaice_uice_min              =  -4.0000000000000E-01
(PID.TID 0000.0001) %MON seaice_uice_mean             =   7.6843877696013E-04
(PID.TID 0000.0001) %MON seaice_uice_sd               =   1.8120504615730E-01
(PID.TID 0000.0001) %MON seaice_uice_del2             =   3.2050544344567E-05
(PID.TID 0000.0001) %MON seaice_vice_max              =   4.0000000000000E-01
(PID.TID 0000.0001) %MON seaice_vice_min              =  -4.0000000000000E-01
(PID.TID 0000.0001) %MON seaice_vice_mean             =  -1.9937672596630E-03
(PID.TID 0000.0001) %MON seaice_vice_sd               =   1.8124693085694E-01
(PID.TID 0000.0001) %MON seaice_vice_del2             =   3.3088003177969E-05
(PID.TID 0000.0001) %MON seaice_area_max              =   9.5000000000000E-01
(PID.TID 0000.0001) %MON seaice_area_min              =   0.0000000000000E+00
(PID.TID 0000.0001) %MON seaice_area_mean             =   4.7727304402487E-02
(PID.TID 0000.0001) %MON seaice_area_sd               =   1.9559745119089E-01
(PID.TID 0000.0001) %MON seaice_area_del2             =   4.2679821077834E-05
(PID.TID 0000.0001) %MON seaice_heff_max              =   5.7661611562903E+00
(PID.TID 0000.0001) %MON seaice_heff_min              =   0.0000000000000E+00
(PID.TID 0000.0001) %MON seaice_heff_mean             =   8.3068528501173E-02
(PID.TID 0000.0001) %MON seaice_heff_sd               =   4.3476517730639E-01
(PID.TID 0000.0001) %MON seaice_heff_del2             =   3.7464541807922E-05
(PID.TID 0000.0001) %MON seaice_hsnow_max             =   8.5141813925747E-01
(PID.TID 0000.0001) %MON seaice_hsnow_min             =  -2.7174534871485E-07
(PID.TID 0000.0001) %MON seaice_hsnow_mean            =   5.2333474876518E-03
(PID.TID 0000.0001) %MON seaice_hsnow_sd              =   2.9418497162758E-02
(PID.TID 0000.0001) %MON seaice_hsnow_del2            =   4.7111804313632E-06
(PID.TID 0000.0001) // =======================================================
(PID.TID 0000.0001) // End MONITOR SEAICE statistics
(PID.TID 0000.0001) // =======================================================
(PID.TID 0000.0001) // =======================================================
(PID.TID 0000.0001) // Begin MONITOR ptracer field statistics
(PID.TID 0000.0001) // =======================================================
(PID.TID 0000.0001) %MON trcstat_ptracer01_max        =   4.0354815873073E+00
(PID.TID 0000.0001) %MON trcstat_ptracer01_min        =  -9.3676565652810E-01
(PID.TID 0000.0001) %MON trcstat_ptracer01_mean       =   2.2269001697121E+00
(PID.TID 0000.0001) %MON trcstat_ptracer01_sd         =   6.6875929577084E-01
(PID.TID 0000.0001) %MON trcstat_ptracer01_del2       =   1.2947171120792E-05
(PID.TID 0000.0001) %MON trcstat_ptracer02_max        =   5.7688397569129E+01
(PID.TID 0000.0001) %MON trcstat_ptracer02_min        =  -6.9935292925421E+00
(PID.TID 0000.0001) %MON trcstat_ptracer02_mean       =   3.1702732085099E+01
(PID.TID 0000.0001) %MON trcstat_ptracer02_sd         =   9.3863196748942E+00
(PID.TID 0000.0001) %MON trcstat_ptracer02_del2       =   1.9142764094342E-04
(PID.TID 0000.0001) %MON trcstat_ptracer03_max        =   1.0953353144550E-03
(PID.TID 0000.0001) %MON trcstat_ptracer03_min        =  -1.4447478041505E-04
(PID.TID 0000.0001) %MON trcstat_ptracer03_mean       =   5.5046310835530E-04
(PID.TID 0000.0001) %MON trcstat_ptracer03_sd         =   1.2603556138353E-04
(PID.TID 0000.0001) %MON trcstat_ptracer03_del2       =   4.3558839818894E-09
(PID.TID 0000.0001) %MON trcstat_ptracer04_max        =   2.5507614943868E+02
(PID.TID 0000.0001) %MON trcstat_ptracer04_min        =  -3.6564308072516E+01
(PID.TID 0000.0001) %MON trcstat_ptracer04_mean       =   9.0903064501876E+01
(PID.TID 0000.0001) %MON trcstat_ptracer04_sd         =   5.3320397770991E+01
(PID.TID 0000.0001) %MON trcstat_ptracer04_del2       =   5.2695209562675E-04
(PID.TID 0000.0001) %MON trcstat_ptracer05_max        =   6.0392976438230E-01
(PID.TID 0000.0001) %MON trcstat_ptracer05_min        =  -5.5153636118784E-02
(PID.TID 0000.0001) %MON trcstat_ptracer05_mean       =   3.0289315178824E-03
(PID.TID 0000.0001) %MON trcstat_ptracer05_sd         =   1.9502325736420E-02
(PID.TID 0000.0001) %MON trcstat_ptracer05_del2       =   1.0292016717432E-06
(PID.TID 0000.0001) %MON trcstat_ptracer06_max        =   9.6628762301168E+00
(PID.TID 0000.0001) %MON trcstat_ptracer06_min        =  -8.8245817790378E-01
(PID.TID 0000.0001) %MON trcstat_ptracer06_mean       =   4.8462904286118E-02
(PID.TID 0000.0001) %MON trcstat_ptracer06_sd         =   3.1203721178270E-01
(PID.TID 0000.0001) %MON trcstat_ptracer06_del2       =   1.6467226747891E-05
(PID.TID 0000.0001) %MON trcstat_ptracer07_max        =   6.0392976438230E-04
(PID.TID 0000.0001) %MON trcstat_ptracer07_min        =  -5.5153636119019E-05
(PID.TID 0000.0001) %MON trcstat_ptracer07_mean       =   3.0289315178826E-06
(PID.TID 0000.0001) %MON trcstat_ptracer07_sd         =   1.9502325736421E-05
(PID.TID 0000.0001) %MON trcstat_ptracer07_del2       =   1.0292016717428E-09
(PID.TID 0000.0001) %MON trcstat_ptracer08_max        =   5.6888478220990E-02
(PID.TID 0000.0001) %MON trcstat_ptracer08_min        =  -1.1383508960879E-02
(PID.TID 0000.0001) %MON trcstat_ptracer08_mean       =   3.4740402077462E-05
(PID.TID 0000.0001) %MON trcstat_ptracer08_sd         =   5.3506648300407E-04
(PID.TID 0000.0001) %MON trcstat_ptracer08_del2       =   4.2506988611591E-08
(PID.TID 0000.0001) %MON trcstat_ptracer09_max        =   9.1021565153581E-01
(PID.TID 0000.0001) %MON trcstat_ptracer09_min        =  -1.8213614337407E-01
(PID.TID 0000.0001) %MON trcstat_ptracer09_mean       =   5.5584643324083E-04
(PID.TID 0000.0001) %MON trcstat_ptracer09_sd         =   8.5610637280549E-03
(PID.TID 0000.0001) %MON trcstat_ptracer09_del2       =   6.8011181782847E-07
(PID.TID 0000.0001) %MON trcstat_ptracer10_max        =   5.6888478221019E-05
(PID.TID 0000.0001) %MON trcstat_ptracer10_min        =  -1.1383508960879E-05
(PID.TID 0000.0001) %MON trcstat_ptracer10_mean       =   3.4740402077590E-08
(PID.TID 0000.0001) %MON trcstat_ptracer10_sd         =   5.3506648300376E-07
(PID.TID 0000.0001) %MON trcstat_ptracer10_del2       =   4.2506988610030E-11
(PID.TID 0000.0001) %MON trcstat_ptracer11_max        =   3.1021465175946E-02
(PID.TID 0000.0001) %MON trcstat_ptracer11_min        =  -3.1765497982854E-03
(PID.TID 0000.0001) %MON trcstat_ptracer11_mean       =   6.4708581112682E-06
(PID.TID 0000.0001) %MON trcstat_ptracer11_sd         =   1.4262843013653E-04
(PID.TID 0000.0001) %MON trcstat_ptracer11_del2       =   1.6465002494639E-08
(PID.TID 0000.0001) %MON trcstat_ptracer12_max        =   2.2318308553687E-01
(PID.TID 0000.0001) %MON trcstat_ptracer12_min        =  -3.9410692403501E-02
(PID.TID 0000.0001) %MON trcstat_ptracer12_mean       =   7.4364957265783E-05
(PID.TID 0000.0001) %MON trcstat_ptracer12_sd         =   1.3217268251877E-03
(PID.TID 0000.0001) %MON trcstat_ptracer12_del2       =   1.4652076698304E-07
(PID.TID 0000.0001) %MON trcstat_ptracer13_max        =   3.5709293685900E+00
(PID.TID 0000.0001) %MON trcstat_ptracer13_min        =  -6.3057107845602E-01
(PID.TID 0000.0001) %MON trcstat_ptracer13_mean       =   1.1898393162513E-03
(PID.TID 0000.0001) %MON trcstat_ptracer13_sd         =   2.1147629202992E-02
(PID.TID 0000.0001) %MON trcstat_ptracer13_del2       =   2.3443322714887E-06
(PID.TID 0000.0001) %MON trcstat_ptracer14_max        =   2.2318308553687E-04
(PID.TID 0000.0001) %MON trcstat_ptracer14_min        =  -3.9410692403501E-05
(PID.TID 0000.0001) %MON trcstat_ptracer14_mean       =   7.4364957265464E-08
(PID.TID 0000.0001) %MON trcstat_ptracer14_sd         =   1.3217268251864E-06
(PID.TID 0000.0001) %MON trcstat_ptracer14_del2       =   1.4652076697732E-10
(PID.TID 0000.0001) %MON trcstat_ptracer15_max        =   1.2672001937230E+00
(PID.TID 0000.0001) %MON trcstat_ptracer15_min        =  -1.8565740986197E-01
(PID.TID 0000.0001) %MON trcstat_ptracer15_mean       =   5.3931744604942E-04
(PID.TID 0000.0001) %MON trcstat_ptracer15_sd         =   9.9269325398139E-03
(PID.TID 0000.0001) %MON trcstat_ptracer15_del2       =   1.0951075308734E-06
(PID.TID 0000.0001) %MON trcstat_ptracer16_max        =   2.7412247659851E+00
(PID.TID 0000.0001) %MON trcstat_ptracer16_min        =  -5.7083556110438E-03
(PID.TID 0000.0001) %MON trcstat_ptracer16_mean       =   6.6525161564128E-04
(PID.TID 0000.0001) %MON trcstat_ptracer16_sd         =   2.1301152401159E-03
(PID.TID 0000.0001) %MON trcstat_ptracer16_del2       =   8.1351804402074E-07
(PID.TID 0000.0001) %MON trcstat_ptracer17_max        =   4.3859596255761E+01
(PID.TID 0000.0001) %MON trcstat_ptracer17_min        =  -9.1333689776701E-02
(PID.TID 0000.0001) %MON trcstat_ptracer17_mean       =   1.0644025850260E-02
(PID.TID 0000.0001) %MON trcstat_ptracer17_sd         =   3.4081843841832E-02
(PID.TID 0000.0001) %MON trcstat_ptracer17_del2       =   1.3016288704341E-05
(PID.TID 0000.0001) %MON trcstat_ptracer18_max        =   2.7412247659843E-03
(PID.TID 0000.0001) %MON trcstat_ptracer18_min        =  -5.7083556110438E-06
(PID.TID 0000.0001) %MON trcstat_ptracer18_mean       =   6.6525161564124E-07
(PID.TID 0000.0001) %MON trcstat_ptracer18_sd         =   2.1301152401150E-06
(PID.TID 0000.0001) %MON trcstat_ptracer18_del2       =   8.1351804401966E-10
(PID.TID 0000.0001) %MON trcstat_ptracer19_max        =   3.8599623250173E+02
(PID.TID 0000.0001) %MON trcstat_ptracer19_min        =  -3.2351206979587E-01
(PID.TID 0000.0001) %MON trcstat_ptracer19_mean       =   7.1387674948258E-02
(PID.TID 0000.0001) %MON trcstat_ptracer19_sd         =   2.1673110267169E-01
(PID.TID 0000.0001) %MON trcstat_ptracer19_del2       =   8.0329894907451E-05
(PID.TID 0000.0001) %MON trcstat_ptracer20_max        =   1.2156982304135E+00
(PID.TID 0000.0001) %MON trcstat_ptracer20_min        =  -1.1300305072512E-01
(PID.TID 0000.0001) %MON trcstat_ptracer20_mean       =   6.3585563681222E-04
(PID.TID 0000.0001) %MON trcstat_ptracer20_sd         =   5.3885629628305E-03
(PID.TID 0000.0001) %MON trcstat_ptracer20_del2       =   6.9824776569522E-07
(PID.TID 0000.0001) %MON trcstat_ptracer21_max        =   3.7942580559889E+00
(PID.TID 0000.0001) %MON trcstat_ptracer21_min        =  -2.1465021296225E-01
(PID.TID 0000.0001) %MON trcstat_ptracer21_mean       =   4.8803136231335E-03
(PID.TID 0000.0001) %MON trcstat_ptracer21_sd         =   2.9693445593868E-02
(PID.TID 0000.0001) %MON trcstat_ptracer21_del2       =   2.5217548585035E-06
(PID.TID 0000.0001) %MON trcstat_ptracer22_max        =   2.0404204377428E-01
(PID.TID 0000.0001) %MON trcstat_ptracer22_min        =  -7.2662278695480E-02
(PID.TID 0000.0001) %MON trcstat_ptracer22_mean       =   1.0681504691125E-04
(PID.TID 0000.0001) %MON trcstat_ptracer22_sd         =   1.8067374807283E-03
(PID.TID 0000.0001) %MON trcstat_ptracer22_del2       =   2.5737773119789E-07
(PID.TID 0000.0001) %MON trcstat_ptracer23_max        =   1.4420045122065E-01
(PID.TID 0000.0001) %MON trcstat_ptracer23_min        =  -4.9203552453841E-02
(PID.TID 0000.0001) %MON trcstat_ptracer23_mean       =   5.8633517800431E-05
(PID.TID 0000.0001) %MON trcstat_ptracer23_sd         =   8.5516887787425E-04
(PID.TID 0000.0001) %MON trcstat_ptracer23_del2       =   1.9329012694818E-07
(PID.TID 0000.0001) %MON trcstat_ptracer24_max        =   1.5814997437218E-01
(PID.TID 0000.0001) %MON trcstat_ptracer24_min        =  -5.3525542369446E-02
(PID.TID 0000.0001) %MON trcstat_ptracer24_mean       =   4.3751351206272E-05
(PID.TID 0000.0001) %MON trcstat_ptracer24_sd         =   6.3529482093482E-04
(PID.TID 0000.0001) %MON trcstat_ptracer24_del2       =   1.2034544796893E-07
(PID.TID 0000.0001) %MON trcstat_ptracer25_max        =   3.4351201818562E-03
(PID.TID 0000.0001) %MON trcstat_ptracer25_min        =  -1.2268443305036E-03
(PID.TID 0000.0001) %MON trcstat_ptracer25_mean       =   7.7421462062720E-08
(PID.TID 0000.0001) %MON trcstat_ptracer25_sd         =   1.2177703848251E-05
(PID.TID 0000.0001) %MON trcstat_ptracer25_del2       =   1.2492201993041E-09
(PID.TID 0000.0001) %MON trcstat_ptracer26_max        =   2.7917710166375E-02
(PID.TID 0000.0001) %MON trcstat_ptracer26_min        =  -4.7717362904197E-03
(PID.TID 0000.0001) %MON trcstat_ptracer26_mean       =   9.8232432493866E-05
(PID.TID 0000.0001) %MON trcstat_ptracer26_sd         =   8.8271423675491E-04
(PID.TID 0000.0001) %MON trcstat_ptracer26_del2       =   5.3391458651891E-08
(PID.TID 0000.0001) %MON trcstat_ptracer27_max        =   3.0597470915807E+01
(PID.TID 0000.0001) %MON trcstat_ptracer27_min        =  -1.3824103694554E+00
(PID.TID 0000.0001) %MON trcstat_ptracer27_mean       =   4.3810891904117E-03
(PID.TID 0000.0001) %MON trcstat_ptracer27_sd         =   6.3008687109191E-02
(PID.TID 0000.0001) %MON trcstat_ptracer27_del2       =   1.1812007367916E-05
(PID.TID 0000.0001) %MON trcstat_ptracer28_max        =   8.5951752055043E+01
(PID.TID 0000.0001) %MON trcstat_ptracer28_min        =  -1.1639163915503E+00
(PID.TID 0000.0001) %MON trcstat_ptracer28_mean       =   3.0959125898657E-03
(PID.TID 0000.0001) %MON trcstat_ptracer28_sd         =   9.7603387987415E-02
(PID.TID 0000.0001) %MON trcstat_ptracer28_del2       =   1.2922572510908E-05
(PID.TID 0000.0001) %MON trcstat_ptracer29_max        =   4.6195412819821E+01
(PID.TID 0000.0001) %MON trcstat_ptracer29_min        =  -4.7308120908724E-01
(PID.TID 0000.0001) %MON trcstat_ptracer29_mean       =   5.3742523178937E-04
(PID.TID 0000.0001) %MON trcstat_ptracer29_sd         =   1.3188522786064E-02
(PID.TID 0000.0001) %MON trcstat_ptracer29_del2       =   7.5475633476430E-06
(PID.TID 0000.0001) %MON trcstat_ptracer30_max        =   1.1091290612905E-02
(PID.TID 0000.0001) %MON trcstat_ptracer30_min        =  -7.0090264061227E-03
(PID.TID 0000.0001) %MON trcstat_ptracer30_mean       =   2.7530500989204E-07
(PID.TID 0000.0001) %MON trcstat_ptracer30_sd         =   5.1246008123180E-05
(PID.TID 0000.0001) %MON trcstat_ptracer30_del2       =   4.7015813905709E-09
(PID.TID 0000.0001) %MON trcstat_ptracer31_max        =   3.8569961595466E+02
(PID.TID 0000.0001) %MON trcstat_ptracer31_min        =  -8.2172376644009E-01
(PID.TID 0000.0001) %MON trcstat_ptracer31_mean       =   1.4288803480008E-01
(PID.TID 0000.0001) %MON trcstat_ptracer31_sd         =   4.0906872332279E+00
(PID.TID 0000.0001) %MON trcstat_ptracer31_del2       =   1.0416373231147E-04
(PID.TID 0000.0001) %MON trcstat_ptracer32_max        =   2.5152414130576E+03
(PID.TID 0000.0001) %MON trcstat_ptracer32_min        =   1.3961339822167E+03
(PID.TID 0000.0001) %MON trcstat_ptracer32_mean       =   2.3369472448242E+03
(PID.TID 0000.0001) %MON trcstat_ptracer32_sd         =   8.6332499437251E+01
(PID.TID 0000.0001) %MON trcstat_ptracer32_del2       =   1.3327910632024E-03
(PID.TID 0000.0001) %MON trcstat_ptracer33_max        =   1.0170349348117E+02
(PID.TID 0000.0001) %MON trcstat_ptracer33_min        =  -1.0472840102115E+01
(PID.TID 0000.0001) %MON trcstat_ptracer33_mean       =   7.1904417052094E-01
(PID.TID 0000.0001) %MON trcstat_ptracer33_sd         =   4.0419844980913E+00
(PID.TID 0000.0001) %MON trcstat_ptracer33_del2       =   1.8677485703749E-04
(PID.TID 0000.0001) %MON trcstat_ptracer34_max        =   7.2506017860939E+02
(PID.TID 0000.0001) %MON trcstat_ptracer34_min        =  -7.0559314188618E-01
(PID.TID 0000.0001) %MON trcstat_ptracer34_mean       =   1.5697409637342E-01
(PID.TID 0000.0001) %MON trcstat_ptracer34_sd         =   4.2474219102167E-01
(PID.TID 0000.0001) %MON trcstat_ptracer34_del2       =   1.8566725601771E-04
(PID.TID 0000.0001) %MON trcstat_ptracer35_max        =   1.3146794932814E+02
(PID.TID 0000.0001) %MON trcstat_ptracer35_min        =  -6.6380323797950E-02
(PID.TID 0000.0001) %MON trcstat_ptracer35_mean       =   1.4825308057058E-02
(PID.TID 0000.0001) %MON trcstat_ptracer35_sd         =   6.6649974578911E-02
(PID.TID 0000.0001) %MON trcstat_ptracer35_del2       =   2.9578115906095E-05
(PID.TID 0000.0001) %MON trcstat_ptracer36_max        =   2.7512681517896E+03
(PID.TID 0000.0001) %MON trcstat_ptracer36_min        =   1.3864975199265E+03
(PID.TID 0000.0001) %MON trcstat_ptracer36_mean       =   2.4479561398165E+03
(PID.TID 0000.0001) %MON trcstat_ptracer36_sd         =   5.6907504879009E+01
(PID.TID 0000.0001) %MON trcstat_ptracer36_del2       =   9.3690685235042E-04
(PID.TID 0000.0001) %MON trcstat_ptracer37_max        =   4.8907930449590E+02
(PID.TID 0000.0001) %MON trcstat_ptracer37_min        =  -8.8619000482165E+01
(PID.TID 0000.0001) %MON trcstat_ptracer37_mean       =   1.7828529664123E+02
(PID.TID 0000.0001) %MON trcstat_ptracer37_sd         =   6.6688852365799E+01
(PID.TID 0000.0001) %MON trcstat_ptracer37_del2       =   1.3988524090294E-03
(PID.TID 0000.0001) %MON trcstat_ptracer38_max        =   6.8266173865215E+00
(PID.TID 0000.0001) %MON trcstat_ptracer38_min        =  -1.3660210753055E+00
(PID.TID 0000.0001) %MON trcstat_ptracer38_mean       =   4.1688482493248E-03
(PID.TID 0000.0001) %MON trcstat_ptracer38_sd         =   6.4207977960162E-02
(PID.TID 0000.0001) %MON trcstat_ptracer38_del2       =   5.1008386334331E-06
(PID.TID 0000.0001) %MON trcstat_ptracer39_max        =   2.6781970264425E+01
(PID.TID 0000.0001) %MON trcstat_ptracer39_min        =  -4.7292830884202E+00
(PID.TID 0000.0001) %MON trcstat_ptracer39_mean       =   8.9237948718384E-03
(PID.TID 0000.0001) %MON trcstat_ptracer39_sd         =   1.5860721902263E-01
(PID.TID 0000.0001) %MON trcstat_ptracer39_del2       =   1.7582492037615E-05
(PID.TID 0000.0001) // =======================================================
(PID.TID 0000.0001) // End MONITOR ptracers field statistics
(PID.TID 0000.0001) // =======================================================
(PID.TID 0000.0001) %CHECKPOINT         5 ckptA
(PID.TID 0000.0001)   Seconds in section "ALL                    [THE_MODEL_MAIN]":
(PID.TID 0000.0001)           User time:   430.698802113533
(PID.TID 0000.0001)         System time:  0.000000000000000E+000
(PID.TID 0000.0001)     Wall clock time:   560.562842130661
(PID.TID 0000.0001)          No. starts:           1
(PID.TID 0000.0001)           No. stops:           1
(PID.TID 0000.0001)   Seconds in section "INITIALISE_FIXED       [THE_MODEL_MAIN]":
(PID.TID 0000.0001)           User time:   42.1337119340897
(PID.TID 0000.0001)         System time:  0.000000000000000E+000
(PID.TID 0000.0001)     Wall clock time:   129.063387870789
(PID.TID 0000.0001)          No. starts:           1
(PID.TID 0000.0001)           No. stops:           1
(PID.TID 0000.0001)   Seconds in section "THE_MAIN_LOOP          [THE_MODEL_MAIN]":
(PID.TID 0000.0001)           User time:   388.565074920654
(PID.TID 0000.0001)         System time:  0.000000000000000E+000
(PID.TID 0000.0001)     Wall clock time:   431.499420881271
(PID.TID 0000.0001)          No. starts:           1
(PID.TID 0000.0001)           No. stops:           1
(PID.TID 0000.0001)   Seconds in section "INITIALISE_VARIA    [THE_MAIN_LOOP]":
(PID.TID 0000.0001)           User time:   267.227657318115
(PID.TID 0000.0001)         System time:  0.000000000000000E+000
(PID.TID 0000.0001)     Wall clock time:   296.008738994598
(PID.TID 0000.0001)          No. starts:           1
(PID.TID 0000.0001)           No. stops:           1
(PID.TID 0000.0001)   Seconds in section "MAIN LOOP           [THE_MAIN_LOOP]":
(PID.TID 0000.0001)           User time:   121.337402343750
(PID.TID 0000.0001)         System time:  0.000000000000000E+000
(PID.TID 0000.0001)     Wall clock time:   135.490657091141
(PID.TID 0000.0001)          No. starts:           1
(PID.TID 0000.0001)           No. stops:           1
(PID.TID 0000.0001)   Seconds in section "MAIN_DO_LOOP        [THE_MAIN_LOOP]":
(PID.TID 0000.0001)           User time:   121.337371826172
(PID.TID 0000.0001)         System time:  0.000000000000000E+000
(PID.TID 0000.0001)     Wall clock time:   135.490628957748
(PID.TID 0000.0001)          No. starts:           4
(PID.TID 0000.0001)           No. stops:           4
(PID.TID 0000.0001)   Seconds in section "FORWARD_STEP        [MAIN_DO_LOOP]":
(PID.TID 0000.0001)           User time:   121.337341308594
(PID.TID 0000.0001)         System time:  0.000000000000000E+000
(PID.TID 0000.0001)     Wall clock time:   135.490582942963
(PID.TID 0000.0001)          No. starts:           4
(PID.TID 0000.0001)           No. stops:           4
(PID.TID 0000.0001)   Seconds in section "DO_STATEVARS_DIAGS  [FORWARD_STEP]":
(PID.TID 0000.0001)           User time:  0.148071289062500
(PID.TID 0000.0001)         System time:  0.000000000000000E+000
(PID.TID 0000.0001)     Wall clock time:  0.148343086242676
(PID.TID 0000.0001)          No. starts:          12
(PID.TID 0000.0001)           No. stops:          12
(PID.TID 0000.0001)   Seconds in section "LOAD_FIELDS_DRIVER  [FORWARD_STEP]":
(PID.TID 0000.0001)           User time:  0.774475097656250
(PID.TID 0000.0001)         System time:  0.000000000000000E+000
(PID.TID 0000.0001)     Wall clock time:  0.922930002212524
(PID.TID 0000.0001)          No. starts:           4
(PID.TID 0000.0001)           No. stops:           4
(PID.TID 0000.0001)   Seconds in section "EXF_GETFORCING     [LOAD_FLDS_DRIVER]":
(PID.TID 0000.0001)           User time:  0.163391113281250
(PID.TID 0000.0001)         System time:  0.000000000000000E+000
(PID.TID 0000.0001)     Wall clock time:  0.185501098632812
(PID.TID 0000.0001)          No. starts:           4
(PID.TID 0000.0001)           No. stops:           4
(PID.TID 0000.0001)   Seconds in section "EXTERNAL_FLDS_LOAD [LOAD_FLDS_DRIVER]":
(PID.TID 0000.0001)           User time:  6.103515625000000E-005
(PID.TID 0000.0001)         System time:  0.000000000000000E+000
(PID.TID 0000.0001)     Wall clock time:  6.222724914550781E-005
(PID.TID 0000.0001)          No. starts:           4
(PID.TID 0000.0001)           No. stops:           4
(PID.TID 0000.0001)   Seconds in section "CTRL_MAP_FORCING  [FORWARD_STEP]":
(PID.TID 0000.0001)           User time:  7.141113281250000E-003
(PID.TID 0000.0001)         System time:  0.000000000000000E+000
(PID.TID 0000.0001)     Wall clock time:  7.152080535888672E-003
(PID.TID 0000.0001)          No. starts:           4
(PID.TID 0000.0001)           No. stops:           4
(PID.TID 0000.0001)   Seconds in section "DO_ATMOSPHERIC_PHYS [FORWARD_STEP]":
(PID.TID 0000.0001)           User time:  0.000000000000000E+000
(PID.TID 0000.0001)         System time:  0.000000000000000E+000
(PID.TID 0000.0001)     Wall clock time:  3.099441528320312E-005
(PID.TID 0000.0001)          No. starts:           4
(PID.TID 0000.0001)           No. stops:           4
(PID.TID 0000.0001)   Seconds in section "DO_OCEANIC_PHYS     [FORWARD_STEP]":
(PID.TID 0000.0001)           User time:  0.591217041015625
(PID.TID 0000.0001)         System time:  0.000000000000000E+000
(PID.TID 0000.0001)     Wall clock time:  0.599903345108032
(PID.TID 0000.0001)          No. starts:           4
(PID.TID 0000.0001)           No. stops:           4
(PID.TID 0000.0001)   Seconds in section "SEAICE_MODEL    [DO_OCEANIC_PHYS]":
(PID.TID 0000.0001)           User time:  0.227386474609375
(PID.TID 0000.0001)         System time:  0.000000000000000E+000
(PID.TID 0000.0001)     Wall clock time:  0.227811098098755
(PID.TID 0000.0001)          No. starts:           4
(PID.TID 0000.0001)           No. stops:           4
(PID.TID 0000.0001)   Seconds in section "SEAICE_DYNSOLVER   [SEAICE_MODEL]":
(PID.TID 0000.0001)           User time:  0.213745117187500
(PID.TID 0000.0001)         System time:  0.000000000000000E+000
(PID.TID 0000.0001)     Wall clock time:  0.214054346084595
(PID.TID 0000.0001)          No. starts:           4
(PID.TID 0000.0001)           No. stops:           4
(PID.TID 0000.0001)   Seconds in section "GGL90_CALC [DO_OCEANIC_PHYS]":
(PID.TID 0000.0001)           User time:  0.127838134765625
(PID.TID 0000.0001)         System time:  0.000000000000000E+000
(PID.TID 0000.0001)     Wall clock time:  0.136003017425537
(PID.TID 0000.0001)          No. starts:           4
(PID.TID 0000.0001)           No. stops:           4
(PID.TID 0000.0001)   Seconds in section "GCHEM_CALC_TENDENCY [FORWARD_STEP]":
(PID.TID 0000.0001)           User time:  0.000000000000000E+000
(PID.TID 0000.0001)         System time:  0.000000000000000E+000
(PID.TID 0000.0001)     Wall clock time:  2.431869506835938E-005
(PID.TID 0000.0001)          No. starts:           4
(PID.TID 0000.0001)           No. stops:           4
(PID.TID 0000.0001)   Seconds in section "DYNAMICS            [FORWARD_STEP]":
(PID.TID 0000.0001)           User time:  0.459106445312500
(PID.TID 0000.0001)         System time:  0.000000000000000E+000
(PID.TID 0000.0001)     Wall clock time:  0.459270000457764
(PID.TID 0000.0001)          No. starts:           4
(PID.TID 0000.0001)           No. stops:           4
(PID.TID 0000.0001)   Seconds in section "UPDATE_R_STAR       [FORWARD_STEP]":
(PID.TID 0000.0001)           User time:  1.010131835937500E-002
(PID.TID 0000.0001)         System time:  0.000000000000000E+000
(PID.TID 0000.0001)     Wall clock time:  1.012206077575684E-002
(PID.TID 0000.0001)          No. starts:           4
(PID.TID 0000.0001)           No. stops:           4
(PID.TID 0000.0001)   Seconds in section "UPDATE_CG2D         [FORWARD_STEP]":
(PID.TID 0000.0001)           User time:  2.401733398437500E-002
(PID.TID 0000.0001)         System time:  0.000000000000000E+000
(PID.TID 0000.0001)     Wall clock time:  2.413725852966309E-002
(PID.TID 0000.0001)          No. starts:           4
(PID.TID 0000.0001)           No. stops:           4
(PID.TID 0000.0001)   Seconds in section "SOLVE_FOR_PRESSURE  [FORWARD_STEP]":
(PID.TID 0000.0001)           User time:  0.189575195312500
(PID.TID 0000.0001)         System time:  0.000000000000000E+000
(PID.TID 0000.0001)     Wall clock time:  0.189723253250122
(PID.TID 0000.0001)          No. starts:           4
(PID.TID 0000.0001)           No. stops:           4
(PID.TID 0000.0001)   Seconds in section "MOM_CORRECTION_STEP [FORWARD_STEP]":
(PID.TID 0000.0001)           User time:  1.040649414062500E-002
(PID.TID 0000.0001)         System time:  0.000000000000000E+000
(PID.TID 0000.0001)     Wall clock time:  1.041388511657715E-002
(PID.TID 0000.0001)          No. starts:           4
(PID.TID 0000.0001)           No. stops:           4
(PID.TID 0000.0001)   Seconds in section "INTEGR_CONTINUITY   [FORWARD_STEP]":
(PID.TID 0000.0001)           User time:  1.843261718750000E-002
(PID.TID 0000.0001)         System time:  0.000000000000000E+000
(PID.TID 0000.0001)     Wall clock time:  1.861214637756348E-002
(PID.TID 0000.0001)          No. starts:           4
(PID.TID 0000.0001)           No. stops:           4
(PID.TID 0000.0001)   Seconds in section "CALC_R_STAR         [FORWARD_STEP]":
(PID.TID 0000.0001)           User time:  1.678466796875000E-003
(PID.TID 0000.0001)         System time:  0.000000000000000E+000
(PID.TID 0000.0001)     Wall clock time:  1.671075820922852E-003
(PID.TID 0000.0001)          No. starts:           4
(PID.TID 0000.0001)           No. stops:           4
(PID.TID 0000.0001)   Seconds in section "BLOCKING_EXCHANGES  [FORWARD_STEP]":
(PID.TID 0000.0001)           User time:   1.14916992187500
(PID.TID 0000.0001)         System time:  0.000000000000000E+000
(PID.TID 0000.0001)     Wall clock time:   1.14977979660034
(PID.TID 0000.0001)          No. starts:           8
(PID.TID 0000.0001)           No. stops:           8
(PID.TID 0000.0001)   Seconds in section "THERMODYNAMICS      [FORWARD_STEP]":
(PID.TID 0000.0001)           User time:   9.32788085937500
(PID.TID 0000.0001)         System time:  0.000000000000000E+000
(PID.TID 0000.0001)     Wall clock time:   9.33352804183960
(PID.TID 0000.0001)          No. starts:           4
(PID.TID 0000.0001)           No. stops:           4
(PID.TID 0000.0001)   Seconds in section "TRC_CORRECTION_STEP [FORWARD_STEP]":
(PID.TID 0000.0001)           User time:  3.051757812500000E-005
(PID.TID 0000.0001)         System time:  0.000000000000000E+000
(PID.TID 0000.0001)     Wall clock time:  2.479553222656250E-005
(PID.TID 0000.0001)          No. starts:           4
(PID.TID 0000.0001)           No. stops:           4
(PID.TID 0000.0001)   Seconds in section "GCHEM_FORCING_SEP  [FORWARD_STEP]":
(PID.TID 0000.0001)           User time:  5.477905273437500E-002
(PID.TID 0000.0001)         System time:  0.000000000000000E+000
(PID.TID 0000.0001)     Wall clock time:  0.197966098785400
(PID.TID 0000.0001)          No. starts:           4
(PID.TID 0000.0001)           No. stops:           4
(PID.TID 0000.0001)   Seconds in section "MONITOR             [FORWARD_STEP]":
(PID.TID 0000.0001)           User time:  0.176330566406250
(PID.TID 0000.0001)         System time:  0.000000000000000E+000
(PID.TID 0000.0001)     Wall clock time:  0.176352977752686
(PID.TID 0000.0001)          No. starts:           4
(PID.TID 0000.0001)           No. stops:           4
(PID.TID 0000.0001)   Seconds in section "DO_THE_MODEL_IO     [FORWARD_STEP]":
(PID.TID 0000.0001)           User time:  0.696502685546875
(PID.TID 0000.0001)         System time:  0.000000000000000E+000
(PID.TID 0000.0001)     Wall clock time:  0.696954965591431
(PID.TID 0000.0001)          No. starts:           4
(PID.TID 0000.0001)           No. stops:           4
(PID.TID 0000.0001)   Seconds in section "PTRACERS_RESET      [FORWARD_STEP]":
(PID.TID 0000.0001)           User time:  3.051757812500000E-005
(PID.TID 0000.0001)         System time:  0.000000000000000E+000
(PID.TID 0000.0001)     Wall clock time:  2.384185791015625E-005
(PID.TID 0000.0001)          No. starts:           4
(PID.TID 0000.0001)           No. stops:           4
(PID.TID 0000.0001)   Seconds in section "DO_WRITE_PICKUP     [FORWARD_STEP]":
(PID.TID 0000.0001)           User time:   107.697479248047
(PID.TID 0000.0001)         System time:  0.000000000000000E+000
(PID.TID 0000.0001)     Wall clock time:   121.542891263962
(PID.TID 0000.0001)          No. starts:           4
(PID.TID 0000.0001)           No. stops:           4
(PID.TID 0000.0001) // ======================================================
(PID.TID 0000.0001) // Tile <-> Tile communication statistics
(PID.TID 0000.0001) // ======================================================
(PID.TID 0000.0001) // o Tile number: 000001
(PID.TID 0000.0001) //         No. X exchanges =              0
(PID.TID 0000.0001) //            Max. X spins =              0
(PID.TID 0000.0001) //            Min. X spins =     1000000000
(PID.TID 0000.0001) //          Total. X spins =              0
(PID.TID 0000.0001) //            Avg. X spins =       0.00E+00
(PID.TID 0000.0001) //         No. Y exchanges =              0
(PID.TID 0000.0001) //            Max. Y spins =              0
(PID.TID 0000.0001) //            Min. Y spins =     1000000000
(PID.TID 0000.0001) //          Total. Y spins =              0
(PID.TID 0000.0001) //            Avg. Y spins =       0.00E+00
(PID.TID 0000.0001) // o Thread number: 000001
(PID.TID 0000.0001) //            No. barriers =         223774
(PID.TID 0000.0001) //      Max. barrier spins =              1
(PID.TID 0000.0001) //      Min. barrier spins =              1
(PID.TID 0000.0001) //     Total barrier spins =         223774
(PID.TID 0000.0001) //      Avg. barrier spins =       1.00E+00
PROGRAM MAIN: Execution ended Normally
